# DDEC6 charges by PACMAN v1.1 (https://github.com/mtap-research/PACMAN-charge/)
data_2011[Pr][nan]3[ASR]1
_chemical_formula_sum              "Pr8 H16 C56 N16 O48"
_cell_length_a       11.008
_cell_length_b       12.002
_cell_length_c       19.473
_cell_angle_alpha    90
_cell_angle_beta     90
_cell_angle_gamma    90

_symmetry_space_group_name_H-M    "P 1"
_symmetry_Int_Tables_number       1

loop_
  _symmetry_equiv_pos_as_xyz
  'x, y, z'

loop_
  _atom_site_type_symbol
  _atom_site_label
  _atom_site_symmetry_multiplicity
  _atom_site_fract_x
  _atom_site_fract_y
  _atom_site_fract_z
  _atom_site_occupancy
  _atom_site_charge
Pr  Pr1       1.0  0.13620  0.34101  0.35162  1.0000 1.9388024681
Pr  Pr2       1.0  0.86380  0.65899  0.85162  1.0000 1.9388024681
Pr  Pr3       1.0  0.63620  0.15899  0.85162  1.0000 1.9388024681
Pr  Pr4       1.0  0.36380  0.84101  0.35162  1.0000 1.9388024681
Pr  Pr5       1.0  0.61772  0.52283  0.13752  1.0000 1.9804968409
Pr  Pr6       1.0  0.38228  0.47717  0.63752  1.0000 1.9804968409
Pr  Pr7       1.0  0.11772  0.97717  0.63752  1.0000 1.9804968409
Pr  Pr8       1.0  0.88228  0.02283  0.13752  1.0000 1.9804968409
H   H1        1.0  0.34890  0.49200  0.24340  1.0000 0.1080687777
H   H2        1.0  0.65110  0.50800  0.74340  1.0000 0.1080687777
H   H3        1.0  0.84890  0.00800  0.74340  1.0000 0.1080687777
H   H4        1.0  0.15110  0.99200  0.24340  1.0000 0.1080687777
H   H5        1.0  0.23130  0.23940  0.08410  1.0000 0.1706915148
H   H6        1.0  0.76870  0.76060  0.58410  1.0000 0.1706915148
H   H7        1.0  0.73130  0.26060  0.58410  1.0000 0.1706915148
H   H8        1.0  0.26870  0.73940  0.08410  1.0000 0.1706915148
H   H9        1.0  0.87040  0.39840  0.24030  1.0000 0.1080687777
H   H10       1.0  0.12960  0.60160  0.74030  1.0000 0.1080687777
H   H11       1.0  0.37040  0.10160  0.74030  1.0000 0.1080687777
H   H12       1.0  0.62960  0.89840  0.24030  1.0000 0.1080687777
H   H13       1.0  0.00600  0.75520  0.25150  1.0000 0.153167224
H   H14       1.0  0.99400  0.24480  0.75150  1.0000 0.153167224
H   H15       1.0  0.50600  0.74480  0.75150  1.0000 0.153167224
H   H16       1.0  0.49400  0.25520  0.25150  1.0000 0.153167224
C   C1        1.0  0.32740  0.43720  0.21190  1.0000 0.2589538492
C   C2        1.0  0.67260  0.56280  0.71190  1.0000 0.2589538492
C   C3        1.0  0.82740  0.06280  0.71190  1.0000 0.2589538492
C   C4        1.0  0.17260  0.93720  0.21190  1.0000 0.2589538492
C   C5        1.0  0.36370  0.34960  0.11020  1.0000 0.1706915148
C   C6        1.0  0.63630  0.65040  0.61020  1.0000 0.1706915148
C   C7        1.0  0.86370  0.15040  0.61020  1.0000 0.1706915148
C   C8        1.0  0.13630  0.84960  0.11020  1.0000 0.1706915148
C   C9        1.0  0.25750  0.28840  0.11800  1.0000 -0.1684833096
C   C10       1.0  0.74250  0.71160  0.61800  1.0000 -0.1643554695
C   C11       1.0  0.75750  0.21160  0.61800  1.0000 -0.1643554695
C   C12       1.0  0.24250  0.78840  0.11800  1.0000 -0.1684833096
C   C13       1.0  0.19260  0.30270  0.17740  1.0000 0.153167224
C   C14       1.0  0.80740  0.69730  0.67740  1.0000 0.153167224
C   C15       1.0  0.69260  0.19730  0.67740  1.0000 0.153167224
C   C16       1.0  0.30740  0.80270  0.17740  1.0000 0.153167224
C   C17       1.0  0.08620  0.22850  0.19570  1.0000 0.5842560403
C   C18       1.0  0.91380  0.77150  0.69570  1.0000 0.5842560403
C   C19       1.0  0.58620  0.27150  0.69570  1.0000 0.5842560403
C   C20       1.0  0.41380  0.72850  0.19570  1.0000 0.5842560403
C   C21       1.0  0.44680  0.33070  0.04940  1.0000 0.5469775223
C   C22       1.0  0.55320  0.66930  0.54940  1.0000 0.5469775223
C   C23       1.0  0.94680  0.16930  0.54940  1.0000 0.5469775223
C   C24       1.0  0.05320  0.83070  0.04940  1.0000 0.5469775223
C   C25       1.0  0.89830  0.47150  0.24180  1.0000 0.2789490693
C   C26       1.0  0.10170  0.52850  0.74180  1.0000 0.2789490693
C   C27       1.0  0.39830  0.02850  0.74180  1.0000 0.2789490693
C   C28       1.0  0.60170  0.97150  0.24180  1.0000 0.2789490693
C   C29       1.0  0.87390  0.65370  0.21280  1.0000 0.153167224
C   C30       1.0  0.12610  0.34630  0.71280  1.0000 0.153167224
C   C31       1.0  0.37390  0.84630  0.71280  1.0000 0.153167224
C   C32       1.0  0.62610  0.15370  0.21280  1.0000 0.153167224
C   C33       1.0  0.97920  0.68190  0.24810  1.0000 -0.1684833096
C   C34       1.0  0.02080  0.31810  0.74810  1.0000 -0.1684833096
C   C35       1.0  0.47920  0.81810  0.74810  1.0000 -0.1684833096
C   C36       1.0  0.52080  0.18190  0.24810  1.0000 -0.1684833096
C   C37       1.0  0.04120  0.59480  0.27750  1.0000 0.153167224
C   C38       1.0  0.95880  0.40520  0.77750  1.0000 0.153167224
C   C39       1.0  0.54120  0.90520  0.77750  1.0000 0.153167224
C   C40       1.0  0.45880  0.09480  0.27750  1.0000 0.153167224
C   C41       1.0  0.16060  0.61450  0.31550  1.0000 0.5900330417
C   C42       1.0  0.83940  0.38550  0.81550  1.0000 0.5900330417
C   C43       1.0  0.66060  0.88550  0.81550  1.0000 0.5900330417
C   C44       1.0  0.33940  0.11450  0.31550  1.0000 0.5900330417
C   C45       1.0  0.79660  0.74310  0.17780  1.0000 0.5979232215
C   C46       1.0  0.20340  0.25690  0.67780  1.0000 0.5979232215
C   C47       1.0  0.29660  0.75690  0.67780  1.0000 0.5979232215
C   C48       1.0  0.70340  0.24310  0.17780  1.0000 0.5979232215
C   C49       1.0  0.67770  0.61650  0.98220  1.0000 0.5074955099
C   C50       1.0  0.32230  0.38350  0.48220  1.0000 0.5074955099
C   C51       1.0  0.17770  0.88350  0.48220  1.0000 0.5074955099
C   C52       1.0  0.82230  0.11650  0.98220  1.0000 0.5074955099
C   C53       1.0  0.79990  0.56450  0.00620  1.0000 0.522024455
C   C54       1.0  0.20010  0.43550  0.50620  1.0000 0.522024455
C   C55       1.0  0.29990  0.93550  0.50620  1.0000 0.522024455
C   C56       1.0  0.70010  0.06450  0.00620  1.0000 0.522024455
N   N1        1.0  0.22740  0.37750  0.22510  1.0000 -0.3606367237
N   N2        1.0  0.77260  0.62250  0.72510  1.0000 -0.3606367237
N   N3        1.0  0.72740  0.12250  0.72510  1.0000 -0.3606367237
N   N4        1.0  0.27260  0.87750  0.22510  1.0000 -0.3606367237
N   N5        1.0  0.39880  0.42410  0.15710  1.0000 -0.3870280139
N   N6        1.0  0.60120  0.57590  0.65710  1.0000 -0.3870280139
N   N7        1.0  0.89880  0.07590  0.65710  1.0000 -0.3870280139
N   N8        1.0  0.10120  0.92410  0.15710  1.0000 -0.3870280139
N   N9        1.0  0.00040  0.49060  0.27690  1.0000 -0.3841237925
N   N10       1.0  0.99960  0.50940  0.77690  1.0000 -0.3841237925
N   N11       1.0  0.50040  0.00940  0.77690  1.0000 -0.3841237925
N   N12       1.0  0.49960  0.99060  0.27690  1.0000 -0.3841237925
N   N13       1.0  0.83330  0.54750  0.20880  1.0000 -0.3606367237
N   N14       1.0  0.16670  0.45250  0.70880  1.0000 -0.3606367237
N   N15       1.0  0.33333  0.95250  0.70880  1.0000 -0.3606367237
N   N16       1.0  0.66667  0.04750  0.20880  1.0000 -0.3606367237
O   O1        1.0  0.04470  0.23730  0.25560  1.0000 -0.654514385
O   O2        1.0  0.95530  0.76270  0.75560  1.0000 -0.654514385
O   O3        1.0  0.54470  0.26270  0.75560  1.0000 -0.654514385
O   O4        1.0  0.45530  0.73730  0.25560  1.0000 -0.654514385
O   O5        1.0  0.05090  0.16150  0.15020  1.0000 -0.6038319595
O   O6        1.0  0.94910  0.83850  0.65020  1.0000 -0.6038319595
O   O7        1.0  0.55090  0.33850  0.65020  1.0000 -0.6038319595
O   O8        1.0  0.44910  0.66150  0.15020  1.0000 -0.6038319595
O   O9        1.0  0.54170  0.39140  0.04710  1.0000 -0.6175366766
O   O10       1.0  0.45830  0.60860  0.54710  1.0000 -0.6175366766
O   O11       1.0  0.04170  0.10860  0.54710  1.0000 -0.6175366766
O   O12       1.0  0.95830  0.89140  0.04710  1.0000 -0.6175366766
O   O13       1.0  0.41580  0.26010  0.00820  1.0000 -0.4973333977
O   O14       1.0  0.58420  0.73990  0.50820  1.0000 -0.4973333977
O   O15       1.0  0.91580  0.23990  0.50820  1.0000 -0.4973333977
O   O16       1.0  0.08420  0.76010  0.00820  1.0000 -0.4973333977
O   O17       1.0  0.20860  0.53440  0.34680  1.0000 -0.6144581265
O   O18       1.0  0.79140  0.46560  0.84680  1.0000 -0.6144581265
O   O19       1.0  0.70860  0.96560  0.84680  1.0000 -0.6144581265
O   O20       1.0  0.29140  0.03440  0.34680  1.0000 -0.6144581265
O   O21       1.0  0.20540  0.71110  0.30910  1.0000 -0.6256775982
O   O22       1.0  0.79460  0.28890  0.80910  1.0000 -0.6256775982
O   O23       1.0  0.70540  0.78890  0.80910  1.0000 -0.6256775982
O   O24       1.0  0.29460  0.21110  0.30910  1.0000 -0.6256775982
O   O25       1.0  0.70050  0.71340  0.14970  1.0000 -0.5878066547
O   O26       1.0  0.29950  0.28660  0.64970  1.0000 -0.5878066547
O   O27       1.0  0.20050  0.78660  0.64970  1.0000 -0.5878066547
O   O28       1.0  0.79950  0.21340  0.14970  1.0000 -0.5878066547
O   O29       1.0  0.83420  0.84120  0.18210  1.0000 -0.6631639726
O   O30       1.0  0.16580  0.15880  0.68210  1.0000 -0.6631639726
O   O31       1.0  0.33420  0.65880  0.68210  1.0000 -0.6631639726
O   O32       1.0  0.66580  0.34120  0.18210  1.0000 -0.6631639726
O   O33       1.0  0.59220  0.61890  0.02530  1.0000 -0.5519576199
O   O34       1.0  0.40780  0.38110  0.52530  1.0000 -0.5519576199
O   O35       1.0  0.09220  0.88110  0.52530  1.0000 -0.5519576199
O   O36       1.0  0.90780  0.11890  0.02530  1.0000 -0.5519576199
O   O37       1.0  0.67400  0.65220  0.92190  1.0000 -0.5687536127
O   O38       1.0  0.32600  0.34780  0.42190  1.0000 -0.5687536127
O   O39       1.0  0.17400  0.84780  0.42190  1.0000 -0.5687536127
O   O40       1.0  0.82600  0.15220  0.92190  1.0000 -0.5687536127
O   O41       1.0  0.79600  0.51070  0.06160  1.0000 -0.5878066547
O   O42       1.0  0.20400  0.48930  0.56160  1.0000 -0.5878066547
O   O43       1.0  0.29600  0.98930  0.56160  1.0000 -0.5878066547
O   O44       1.0  0.70400  0.01070  0.06160  1.0000 -0.5878066547
O   O45       1.0  0.88940  0.57860  0.96830  1.0000 -0.5759328879
O   O46       1.0  0.11060  0.42140  0.46830  1.0000 -0.5759328879
O   O47       1.0  0.38940  0.92140  0.46830  1.0000 -0.5759328879
O   O48       1.0  0.61060  0.07860  0.96830  1.0000 -0.5759328879
