# DDEC6 charges by PACMAN v1.1 (https://github.com/mtap-research/PACMAN-charge/)
data_2003[Co][pts]3[ASR]1
_chemical_formula_sum              "Co4 H96 C116 N16 Cl8 O32"
_cell_length_a       13.0678
_cell_length_b       13.0678
_cell_length_c       25.914
_cell_angle_alpha    90
_cell_angle_beta     90
_cell_angle_gamma    90

_symmetry_space_group_name_H-M    "P 1"
_symmetry_Int_Tables_number       1

loop_
  _symmetry_equiv_pos_as_xyz
  'x, y, z'

loop_
  _atom_site_type_symbol
  _atom_site_label
  _atom_site_symmetry_multiplicity
  _atom_site_fract_x
  _atom_site_fract_y
  _atom_site_fract_z
  _atom_site_occupancy
  _atom_site_charge
Co  Co1       1.0  0.50000  0.50000  0.13130  1.0000 0.6216369489
Co  Co2       1.0  0.00000  0.00000  0.63130  1.0000 0.6216369489
Co  Co3       1.0  0.00000  0.00000  0.36870  1.0000 0.6216369489
Co  Co4       1.0  0.50000  0.50000  0.86870  1.0000 0.6216369489
H   H1        1.0  0.48890  0.36470  0.23000  1.0000 0.1017726376
H   H2        1.0  0.51110  0.63530  0.23000  1.0000 0.1017726376
H   H3        1.0  0.86470  0.01110  0.73000  1.0000 0.1017726376
H   H4        1.0  0.13530  0.98890  0.73000  1.0000 0.1017726376
H   H5        1.0  0.38030  0.32500  0.30010  1.0000 0.1382158976
H   H6        1.0  0.61970  0.67500  0.30010  1.0000 0.1382158976
H   H7        1.0  0.82500  0.11970  0.80010  1.0000 0.1382158976
H   H8        1.0  0.17500  0.88030  0.80010  1.0000 0.1382158976
H   H9        1.0  0.15650  0.48430  0.22620  1.0000 0.1382158976
H   H10       1.0  0.84350  0.51570  0.22620  1.0000 0.1382158976
H   H11       1.0  0.98430  0.34350  0.72620  1.0000 0.1382158976
H   H12       1.0  0.01570  0.65650  0.72620  1.0000 0.1382158976
H   H13       1.0  0.27720  0.52350  0.16220  1.0000 0.1088417995
H   H14       1.0  0.72280  0.47650  0.16220  1.0000 0.1088417995
H   H15       1.0  0.02350  0.22280  0.66220  1.0000 0.1088417995
H   H16       1.0  0.97650  0.77720  0.66220  1.0000 0.1088417995
H   H17       1.0  0.95560  0.38580  0.33070  1.0000 0.1088417995
H   H18       1.0  0.04440  0.61420  0.33070  1.0000 0.1088417995
H   H19       1.0  0.88580  0.54440  0.83070  1.0000 0.1088417995
H   H20       1.0  0.11420  0.45560  0.83070  1.0000 0.1088417995
H   H21       1.0  0.04000  0.34960  0.36860  1.0000 0.1017726376
H   H22       1.0  0.96000  0.65040  0.36860  1.0000 0.1017726376
H   H23       1.0  0.84960  0.46000  0.86860  1.0000 0.1017726376
H   H24       1.0  0.15040  0.54000  0.86860  1.0000 0.1017726376
H   H25       1.0  0.89070  0.54190  0.43320  1.0000 0.1088417995
H   H26       1.0  0.10930  0.45810  0.43320  1.0000 0.1088417995
H   H27       1.0  0.04190  0.60930  0.93320  1.0000 0.1088417995
H   H28       1.0  0.95810  0.39070  0.93320  1.0000 0.1088417995
H   H29       1.0  0.84930  0.46420  0.39300  1.0000 0.1088417995
H   H30       1.0  0.15070  0.53580  0.39300  1.0000 0.1088417995
H   H31       1.0  0.96420  0.65070  0.89300  1.0000 0.1088417995
H   H32       1.0  0.03580  0.34930  0.89300  1.0000 0.1088417995
H   H33       1.0  0.03600  0.26800  0.48560  1.0000 0.1321426996
H   H34       1.0  0.96400  0.73200  0.48560  1.0000 0.1321426996
H   H35       1.0  0.76800  0.46400  0.98560  1.0000 0.1321426996
H   H36       1.0  0.23200  0.53600  0.98560  1.0000 0.1321426996
H   H37       1.0  0.08230  0.13080  0.53780  1.0000 0.1017726376
H   H38       1.0  0.91770  0.86920  0.53780  1.0000 0.1017726376
H   H39       1.0  0.63080  0.41770  0.03780  1.0000 0.1017726376
H   H40       1.0  0.36920  0.58230  0.03780  1.0000 0.1017726376
H   H41       1.0  0.81110  0.13190  0.60410  1.0000 0.1017726376
H   H42       1.0  0.18890  0.86810  0.60410  1.0000 0.1017726376
H   H43       1.0  0.63190  0.68890  0.10410  1.0000 0.1017726376
H   H44       1.0  0.36810  0.31110  0.10410  1.0000 0.1017726376
H   H45       1.0  0.75950  0.26710  0.55440  1.0000 0.1382158976
H   H46       1.0  0.24050  0.73290  0.55440  1.0000 0.1382158976
H   H47       1.0  0.76710  0.74050  0.05440  1.0000 0.1382158976
H   H48       1.0  0.23290  0.25950  0.05440  1.0000 0.1382158976
H   H49       1.0  0.98890  0.86470  0.27000  1.0000 0.1017726376
H   H50       1.0  0.63530  0.48890  0.77000  1.0000 0.1017726376
H   H51       1.0  0.36470  0.51110  0.77000  1.0000 0.1017726376
H   H52       1.0  0.01110  0.13530  0.27000  1.0000 0.1017726376
H   H53       1.0  0.88030  0.82500  0.19990  1.0000 0.1382158976
H   H54       1.0  0.67500  0.38030  0.69990  1.0000 0.1382158976
H   H55       1.0  0.32500  0.61970  0.69990  1.0000 0.1382158976
H   H56       1.0  0.11970  0.17500  0.19990  1.0000 0.1382158976
H   H57       1.0  0.65650  0.98430  0.27380  1.0000 0.1382158976
H   H58       1.0  0.51570  0.15650  0.77380  1.0000 0.1382158976
H   H59       1.0  0.48430  0.84350  0.77380  1.0000 0.1382158976
H   H60       1.0  0.34350  0.01570  0.27380  1.0000 0.1382158976
H   H61       1.0  0.77720  0.02350  0.33780  1.0000 0.1088417995
H   H62       1.0  0.47650  0.27720  0.83780  1.0000 0.1088417995
H   H63       1.0  0.52350  0.72280  0.83780  1.0000 0.1088417995
H   H64       1.0  0.22280  0.97650  0.33780  1.0000 0.1088417995
H   H65       1.0  0.45560  0.88580  0.16930  1.0000 0.1088417995
H   H66       1.0  0.61420  0.95560  0.66930  1.0000 0.1088417995
H   H67       1.0  0.38580  0.04440  0.66930  1.0000 0.1088417995
H   H68       1.0  0.54440  0.11420  0.16930  1.0000 0.1088417995
H   H69       1.0  0.54000  0.84960  0.13140  1.0000 0.1017726376
H   H70       1.0  0.65040  0.04000  0.63140  1.0000 0.1017726376
H   H71       1.0  0.34960  0.96000  0.63140  1.0000 0.1017726376
H   H72       1.0  0.46000  0.15040  0.13140  1.0000 0.1017726376
H   H73       1.0  0.39070  0.04190  0.06680  1.0000 0.1088417995
H   H74       1.0  0.45810  0.89070  0.56680  1.0000 0.1088417995
H   H75       1.0  0.54190  0.10930  0.56680  1.0000 0.1088417995
H   H76       1.0  0.60930  0.95810  0.06680  1.0000 0.1088417995
H   H77       1.0  0.34930  0.96420  0.10700  1.0000 0.1088417995
H   H78       1.0  0.53580  0.84930  0.60700  1.0000 0.1088417995
H   H79       1.0  0.46420  0.15070  0.60700  1.0000 0.1088417995
H   H80       1.0  0.65070  0.03580  0.10700  1.0000 0.1088417995
H   H81       1.0  0.53600  0.76800  0.01440  1.0000 0.1321426996
H   H82       1.0  0.73200  0.03600  0.51440  1.0000 0.1321426996
H   H83       1.0  0.26800  0.96400  0.51440  1.0000 0.1321426996
H   H84       1.0  0.46400  0.23200  0.01440  1.0000 0.1321426996
H   H85       1.0  0.58230  0.63080  0.96220  1.0000 0.1017726376
H   H86       1.0  0.86920  0.08230  0.46220  1.0000 0.1017726376
H   H87       1.0  0.13080  0.91770  0.46220  1.0000 0.1017726376
H   H88       1.0  0.41770  0.36920  0.96220  1.0000 0.1017726376
H   H89       1.0  0.31110  0.63190  0.89590  1.0000 0.1017726376
H   H90       1.0  0.86810  0.81110  0.39590  1.0000 0.1017726376
H   H91       1.0  0.13190  0.18890  0.39590  1.0000 0.1017726376
H   H92       1.0  0.68890  0.36810  0.89590  1.0000 0.1017726376
H   H93       1.0  0.25950  0.76710  0.94560  1.0000 0.1382158976
H   H94       1.0  0.73290  0.75950  0.44560  1.0000 0.1382158976
H   H95       1.0  0.26710  0.24050  0.44560  1.0000 0.1382158976
H   H96       1.0  0.74050  0.23290  0.94560  1.0000 0.1382158976
C   C1        1.0  0.42100  0.39100  0.23020  1.0000 0.0804058036
C   C2        1.0  0.57900  0.60900  0.23020  1.0000 0.0804058036
C   C3        1.0  0.89100  0.07900  0.73020  1.0000 0.0804058036
C   C4        1.0  0.10900  0.92100  0.73020  1.0000 0.0804058036
C   C5        1.0  0.35700  0.36500  0.27210  1.0000 -0.1582537586
C   C6        1.0  0.64300  0.63500  0.27210  1.0000 -0.1582537586
C   C7        1.0  0.86500  0.14300  0.77210  1.0000 -0.1582537586
C   C8        1.0  0.13500  0.85700  0.77210  1.0000 -0.1582537586
C   C9        1.0  0.25600  0.40300  0.26990  1.0000 0.005263883
C   C10       1.0  0.74400  0.59700  0.26990  1.0000 0.005263883
C   C11       1.0  0.90300  0.24400  0.76990  1.0000 0.005263883
C   C12       1.0  0.09700  0.75600  0.76990  1.0000 0.005263883
C   C13       1.0  0.22500  0.46000  0.22890  1.0000 -0.1582537586
C   C14       1.0  0.77500  0.54000  0.22890  1.0000 -0.1582537586
C   C15       1.0  0.96000  0.27500  0.72890  1.0000 -0.1582537586
C   C16       1.0  0.04000  0.72500  0.72890  1.0000 -0.1582537586
C   C17       1.0  0.29800  0.48200  0.19050  1.0000 0.1017726376
C   C18       1.0  0.70200  0.51800  0.19050  1.0000 0.1017726376
C   C19       1.0  0.98200  0.20200  0.69050  1.0000 0.1017726376
C   C20       1.0  0.01800  0.79800  0.69050  1.0000 0.1017726376
C   C21       1.0  0.18700  0.38100  0.31510  1.0000 0.4992845872
C   C22       1.0  0.81300  0.61900  0.31510  1.0000 0.4992845872
C   C23       1.0  0.88100  0.31300  0.81510  1.0000 0.4992845872
C   C24       1.0  0.11900  0.68700  0.81510  1.0000 0.4992845872
C   C25       1.0  0.01800  0.40400  0.34720  1.0000 -0.0671959814
C   C26       1.0  0.98200  0.59600  0.34720  1.0000 -0.0671959814
C   C27       1.0  0.90400  0.48200  0.84720  1.0000 -0.0671959814
C   C28       1.0  0.09600  0.51800  0.84720  1.0000 -0.0671959814
C   C29       1.0  0.00000  0.50000  0.38060  1.0000 0.0804058036
C   C30       1.0  0.00000  0.50000  0.88060  1.0000 0.0678052242
C   C31       1.0  0.90600  0.48200  0.41380  1.0000 -0.0671959814
C   C32       1.0  0.09400  0.51800  0.41380  1.0000 -0.0671959814
C   C33       1.0  0.98200  0.59400  0.91380  1.0000 -0.0671959814
C   C34       1.0  0.01800  0.40600  0.91380  1.0000 -0.0671959814
C   C35       1.0  0.86000  0.36500  0.48090  1.0000 0.4920886078
C   C36       1.0  0.14000  0.63500  0.48090  1.0000 0.4920886078
C   C37       1.0  0.86500  0.64000  0.98090  1.0000 0.4920886078
C   C38       1.0  0.13500  0.36000  0.98090  1.0000 0.4920886078
C   C39       1.0  0.89100  0.28100  0.51350  1.0000 -0.020149223
C   C40       1.0  0.10900  0.71900  0.51350  1.0000 -0.020149223
C   C41       1.0  0.78100  0.60900  0.01350  1.0000 -0.020149223
C   C42       1.0  0.21900  0.39100  0.01350  1.0000 -0.020149223
C   C43       1.0  0.98800  0.24000  0.50950  1.0000 -0.1582537586
C   C44       1.0  0.01200  0.76000  0.50950  1.0000 -0.1582537586
C   C45       1.0  0.74000  0.51200  0.00950  1.0000 -0.1582537586
C   C46       1.0  0.26000  0.48800  0.00950  1.0000 -0.1582537586
C   C47       1.0  0.01500  0.15900  0.54100  1.0000 0.0872044631
C   C48       1.0  0.98500  0.84100  0.54100  1.0000 0.0872044631
C   C49       1.0  0.65900  0.48500  0.04100  1.0000 0.0872044631
C   C50       1.0  0.34100  0.51500  0.04100  1.0000 0.0872044631
C   C51       1.0  0.85800  0.15900  0.57960  1.0000 0.0678052242
C   C52       1.0  0.14200  0.84100  0.57960  1.0000 0.0678052242
C   C53       1.0  0.65900  0.64200  0.07960  1.0000 0.0678052242
C   C54       1.0  0.34100  0.35800  0.07960  1.0000 0.0678052242
C   C55       1.0  0.82600  0.24000  0.55000  1.0000 -0.1378865323
C   C56       1.0  0.17400  0.76000  0.55000  1.0000 -0.1378865323
C   C57       1.0  0.74000  0.67400  0.05000  1.0000 -0.1378865323
C   C58       1.0  0.26000  0.32600  0.05000  1.0000 -0.1378865323
C   C59       1.0  0.92100  0.89100  0.26980  1.0000 0.0804058036
C   C60       1.0  0.60900  0.42100  0.76980  1.0000 0.0804058036
C   C61       1.0  0.39100  0.57900  0.76980  1.0000 0.0804058036
C   C62       1.0  0.07900  0.10900  0.26980  1.0000 0.0804058036
C   C63       1.0  0.85700  0.86500  0.22790  1.0000 -0.1582537586
C   C64       1.0  0.63500  0.35700  0.72790  1.0000 -0.1582537586
C   C65       1.0  0.36500  0.64300  0.72790  1.0000 -0.1582537586
C   C66       1.0  0.14300  0.13500  0.22790  1.0000 -0.1582537586
C   C67       1.0  0.75600  0.90300  0.23010  1.0000 0.005263883
C   C68       1.0  0.59700  0.25600  0.73010  1.0000 0.005263883
C   C69       1.0  0.40300  0.74400  0.73010  1.0000 0.005263883
C   C70       1.0  0.24400  0.09700  0.23010  1.0000 0.005263883
C   C71       1.0  0.72500  0.96000  0.27110  1.0000 -0.1582537586
C   C72       1.0  0.54000  0.22500  0.77110  1.0000 -0.1582537586
C   C73       1.0  0.46000  0.77500  0.77110  1.0000 -0.1582537586
C   C74       1.0  0.27500  0.04000  0.27110  1.0000 -0.1582537586
C   C75       1.0  0.79800  0.98200  0.30950  1.0000 0.1017726376
C   C76       1.0  0.51800  0.29800  0.80950  1.0000 0.1017726376
C   C77       1.0  0.48200  0.70200  0.80950  1.0000 0.1017726376
C   C78       1.0  0.20200  0.01800  0.30950  1.0000 0.1017726376
C   C79       1.0  0.68700  0.88100  0.18490  1.0000 0.4992845872
C   C80       1.0  0.61900  0.18700  0.68490  1.0000 0.4992845872
C   C81       1.0  0.38100  0.81300  0.68490  1.0000 0.4992845872
C   C82       1.0  0.31300  0.11900  0.18490  1.0000 0.4992845872
C   C83       1.0  0.51800  0.90400  0.15280  1.0000 -0.0671959814
C   C84       1.0  0.59600  0.01800  0.65280  1.0000 -0.0671959814
C   C85       1.0  0.40400  0.98200  0.65280  1.0000 -0.0671959814
C   C86       1.0  0.48200  0.09600  0.15280  1.0000 -0.0671959814
C   C87       1.0  0.50000  0.00000  0.11940  1.0000 0.0804058036
C   C88       1.0  0.50000  0.00000  0.61940  1.0000 0.0804058036
C   C89       1.0  0.40600  0.98200  0.08620  1.0000 -0.0671959814
C   C90       1.0  0.51800  0.90600  0.58620  1.0000 -0.0671959814
C   C91       1.0  0.48200  0.09400  0.58620  1.0000 -0.0671959814
C   C92       1.0  0.59400  0.01800  0.08620  1.0000 -0.0671959814
C   C93       1.0  0.36000  0.86500  0.01910  1.0000 0.4920886078
C   C94       1.0  0.63500  0.86000  0.51910  1.0000 0.4920886078
C   C95       1.0  0.36500  0.14000  0.51910  1.0000 0.4920886078
C   C96       1.0  0.64000  0.13500  0.01910  1.0000 0.4920886078
C   C97       1.0  0.39100  0.78100  0.98650  1.0000 -0.020149223
C   C98       1.0  0.71900  0.89100  0.48650  1.0000 -0.020149223
C   C99       1.0  0.28100  0.10900  0.48650  1.0000 -0.020149223
C   C100      1.0  0.60900  0.21900  0.98650  1.0000 -0.020149223
C   C101      1.0  0.48800  0.74000  0.99050  1.0000 -0.1582537586
C   C102      1.0  0.76000  0.98800  0.49050  1.0000 -0.1582537586
C   C103      1.0  0.24000  0.01200  0.49050  1.0000 -0.1582537586
C   C104      1.0  0.51200  0.26000  0.99050  1.0000 -0.1582537586
C   C105      1.0  0.51500  0.65900  0.95900  1.0000 0.0872044631
C   C106      1.0  0.84100  0.01500  0.45900  1.0000 0.0872044631
C   C107      1.0  0.15900  0.98500  0.45900  1.0000 0.0872044631
C   C108      1.0  0.48500  0.34100  0.95900  1.0000 0.0872044631
C   C109      1.0  0.35800  0.65900  0.92040  1.0000 0.0678052242
C   C110      1.0  0.84100  0.85800  0.42040  1.0000 0.0678052242
C   C111      1.0  0.15900  0.14200  0.42040  1.0000 0.0678052242
C   C112      1.0  0.64200  0.34100  0.92040  1.0000 0.0678052242
C   C113      1.0  0.32600  0.74000  0.95000  1.0000 -0.1378865323
C   C114      1.0  0.76000  0.82600  0.45000  1.0000 -0.1378865323
C   C115      1.0  0.24000  0.17400  0.45000  1.0000 -0.1378865323
C   C116      1.0  0.67400  0.26000  0.95000  1.0000 -0.1378865323
N   N1        1.0  0.39300  0.45000  0.19100  1.0000 -0.2103140157
N   N2        1.0  0.60700  0.55000  0.19100  1.0000 -0.2103140157
N   N3        1.0  0.95000  0.10700  0.69100  1.0000 -0.2103140157
N   N4        1.0  0.05000  0.89300  0.69100  1.0000 -0.2103140157
N   N5        1.0  0.95200  0.11700  0.57560  1.0000 -0.2103140157
N   N6        1.0  0.04800  0.88300  0.57560  1.0000 -0.2103140157
N   N7        1.0  0.61700  0.54800  0.07560  1.0000 -0.2103140157
N   N8        1.0  0.38300  0.45200  0.07560  1.0000 -0.2103140157
N   N9        1.0  0.89300  0.95000  0.30900  1.0000 -0.2103140157
N   N10       1.0  0.55000  0.39300  0.80900  1.0000 -0.2103140157
N   N11       1.0  0.45000  0.60700  0.80900  1.0000 -0.2103140157
N   N12       1.0  0.10700  0.05000  0.30900  1.0000 -0.2103140157
N   N13       1.0  0.45200  0.61700  0.92440  1.0000 -0.2155572853
N   N14       1.0  0.88300  0.95200  0.42440  1.0000 -0.2103140157
N   N15       1.0  0.11700  0.04800  0.42440  1.0000 -0.2103140157
N   N16       1.0  0.54800  0.38300  0.92440  1.0000 -0.2155572853
Cl  Cl1       1.0  0.57780  0.33240  0.13100  1.0000 -0.5902545682
Cl  Cl2       1.0  0.42220  0.66760  0.13100  1.0000 -0.5902545682
Cl  Cl3       1.0  0.83240  0.92220  0.63100  1.0000 -0.5902545682
Cl  Cl4       1.0  0.16760  0.07780  0.63100  1.0000 -0.5902545682
Cl  Cl5       1.0  0.07780  0.83240  0.36900  1.0000 -0.5902545682
Cl  Cl6       1.0  0.66760  0.57780  0.86900  1.0000 -0.5902545682
Cl  Cl7       1.0  0.33240  0.42220  0.86900  1.0000 -0.5902545682
Cl  Cl8       1.0  0.92220  0.16760  0.36900  1.0000 -0.5902545682
O   O1        1.0  0.21300  0.33000  0.35110  1.0000 -0.4416020966
O   O2        1.0  0.78700  0.67000  0.35110  1.0000 -0.4416020966
O   O3        1.0  0.83000  0.28700  0.85110  1.0000 -0.4416020966
O   O4        1.0  0.17000  0.71300  0.85110  1.0000 -0.4416020966
O   O5        1.0  0.09590  0.42450  0.30790  1.0000 -0.2103140157
O   O6        1.0  0.90410  0.57550  0.30790  1.0000 -0.2103140157
O   O7        1.0  0.92450  0.40410  0.80790  1.0000 -0.2103140157
O   O8        1.0  0.07550  0.59590  0.80790  1.0000 -0.2103140157
O   O9        1.0  0.93290  0.39910  0.44770  1.0000 -0.2103140157
O   O10       1.0  0.06710  0.60090  0.44770  1.0000 -0.2103140157
O   O11       1.0  0.89910  0.56710  0.94770  1.0000 -0.2103140157
O   O12       1.0  0.10090  0.43290  0.94770  1.0000 -0.2103140157
O   O13       1.0  0.77600  0.40500  0.48230  1.0000 -0.4309071123
O   O14       1.0  0.22400  0.59500  0.48230  1.0000 -0.4309071123
O   O15       1.0  0.90500  0.72400  0.98230  1.0000 -0.4309071123
O   O16       1.0  0.09500  0.27600  0.98230  1.0000 -0.4309071123
O   O17       1.0  0.71300  0.83000  0.14890  1.0000 -0.4416020966
O   O18       1.0  0.67000  0.21300  0.64890  1.0000 -0.4416020966
O   O19       1.0  0.33000  0.78700  0.64890  1.0000 -0.4416020966
O   O20       1.0  0.28700  0.17000  0.14890  1.0000 -0.4416020966
O   O21       1.0  0.59590  0.92450  0.19210  1.0000 -0.2103140157
O   O22       1.0  0.57550  0.09590  0.69210  1.0000 -0.2103140157
O   O23       1.0  0.42450  0.90410  0.69210  1.0000 -0.2103140157
O   O24       1.0  0.40410  0.07550  0.19210  1.0000 -0.2103140157
O   O25       1.0  0.43290  0.89910  0.05230  1.0000 -0.2103140157
O   O26       1.0  0.60090  0.93290  0.55230  1.0000 -0.2103140157
O   O27       1.0  0.39910  0.06710  0.55230  1.0000 -0.2103140157
O   O28       1.0  0.56710  0.10090  0.05230  1.0000 -0.2103140157
O   O29       1.0  0.27600  0.90500  0.01770  1.0000 -0.4309071123
O   O30       1.0  0.59500  0.77600  0.51770  1.0000 -0.4309071123
O   O31       1.0  0.40500  0.22400  0.51770  1.0000 -0.4309071123
O   O32       1.0  0.72400  0.09500  0.01770  1.0000 -0.4309071123
