# DDEC6 charges by PACMAN v1.1 (https://github.com/mtap-research/PACMAN-charge/)
data_2013[Zn][uni]3[ASR]6
_chemical_formula_sum              "Zn6 H60 C54 N12 O12"
_cell_length_a       17.5911
_cell_length_b       17.5911
_cell_length_c       10.1716
_cell_angle_alpha    90
_cell_angle_beta     90
_cell_angle_gamma    120

_symmetry_space_group_name_H-M    "P 1"
_symmetry_Int_Tables_number       1

loop_
  _symmetry_equiv_pos_as_xyz
  'x, y, z'

loop_
  _atom_site_type_symbol
  _atom_site_label
  _atom_site_symmetry_multiplicity
  _atom_site_fract_x
  _atom_site_fract_y
  _atom_site_fract_z
  _atom_site_occupancy
  _atom_site_charge
Zn  Zn1       1.0  0.54337  0.07531  0.13354  1.0000 0.7170348382
Zn  Zn2       1.0  0.46806  0.54337  0.30021  1.0000 0.7170348382
Zn  Zn3       1.0  0.92469  0.46806  0.46687  1.0000 0.7170348382
Zn  Zn4       1.0  0.45663  0.92469  0.63354  1.0000 0.7170348382
Zn  Zn5       1.0  0.53194  0.45663  0.80021  1.0000 0.7170348382
Zn  Zn6       1.0  0.07531  0.53194  0.96687  1.0000 0.7170348382
H   H1        1.0  0.47470  0.69820  0.41680  1.0000 0.1100915978
H   H2        1.0  0.77650  0.47470  0.58347  1.0000 0.1100915978
H   H3        1.0  0.30180  0.77650  0.75013  1.0000 0.1100915978
H   H4        1.0  0.52530  0.30180  0.91680  1.0000 0.1100915978
H   H5        1.0  0.22350  0.52530  0.08347  1.0000 0.1100915978
H   H6        1.0  0.69820  0.22350  0.25013  1.0000 0.1100915978
H   H7        1.0  0.56180  0.67250  0.07330  1.0000 0.1100915978
H   H8        1.0  0.88930  0.56180  0.23997  1.0000 0.1100915978
H   H9        1.0  0.32750  0.88930  0.40663  1.0000 0.1100915978
H   H10       1.0  0.43820  0.32750  0.57330  1.0000 0.1100915978
H   H11       1.0  0.11070  0.43820  0.73997  1.0000 0.1100915978
H   H12       1.0  0.67250  0.11070  0.90663  1.0000 0.1100915978
H   H13       1.0  0.63430  0.98060  0.21170  1.0000 0.1257595634
H   H14       1.0  0.65370  0.63430  0.37837  1.0000 0.1257595634
H   H15       1.0  0.01940  0.65370  0.54503  1.0000 0.1257595634
H   H16       1.0  0.36570  0.01940  0.71170  1.0000 0.1257595634
H   H17       1.0  0.34630  0.36570  0.87837  1.0000 0.1257595634
H   H18       1.0  0.98060  0.34630  0.04503  1.0000 0.1257595634
H   H19       1.0  0.61560  0.95210  0.06340  1.0000 0.1010646215
H   H20       1.0  0.66350  0.61560  0.23007  1.0000 0.1010646215
H   H21       1.0  0.04790  0.66350  0.39673  1.0000 0.1010646215
H   H22       1.0  0.38440  0.04790  0.56340  1.0000 0.1010646215
H   H23       1.0  0.33650  0.38440  0.73007  1.0000 0.1010646215
H   H24       1.0  0.95210  0.33650  0.89673  1.0000 0.1010646215
H   H25       1.0  0.45150  0.83870  0.03750  1.0000 0.0888161824
H   H26       1.0  0.61280  0.45150  0.20417  1.0000 0.0888161824
H   H27       1.0  0.16130  0.61280  0.37083  1.0000 0.0888161824
H   H28       1.0  0.54850  0.16130  0.53750  1.0000 0.0888161824
H   H29       1.0  0.38720  0.54850  0.70417  1.0000 0.0888161824
H   H30       1.0  0.83870  0.38720  0.87083  1.0000 0.0888161824
H   H31       1.0  0.61030  0.81590  0.02380  1.0000 0.1376401996
H   H32       1.0  0.79440  0.61030  0.19047  1.0000 0.1376401996
H   H33       1.0  0.18410  0.79440  0.35713  1.0000 0.1376401996
H   H34       1.0  0.38970  0.18410  0.52380  1.0000 0.1376401996
H   H35       1.0  0.20560  0.38970  0.69047  1.0000 0.1376401996
H   H36       1.0  0.81590  0.20560  0.85713  1.0000 0.1376401996
H   H37       1.0  0.52770  0.84690  0.37160  1.0000 0.1458262718
H   H38       1.0  0.68080  0.52770  0.53827  1.0000 0.1458262718
H   H39       1.0  0.15310  0.68080  0.70493  1.0000 0.1458262718
H   H40       1.0  0.47230  0.15310  0.87160  1.0000 0.1458262718
H   H41       1.0  0.31920  0.47230  0.03827  1.0000 0.1458262718
H   H42       1.0  0.84690  0.31920  0.20493  1.0000 0.1458262718
H   H43       1.0  0.34960  0.84020  0.19970  1.0000 0.1197304369
H   H44       1.0  0.50940  0.34960  0.36637  1.0000 0.1197304369
H   H45       1.0  0.15980  0.50940  0.53303  1.0000 0.1197304369
H   H46       1.0  0.65040  0.15980  0.69970  1.0000 0.1197304369
H   H47       1.0  0.49060  0.65040  0.86637  1.0000 0.1197304369
H   H48       1.0  0.84020  0.49060  0.03303  1.0000 0.1197304369
H   H49       1.0  0.31190  0.80370  0.05960  1.0000 0.1197304369
H   H50       1.0  0.50820  0.31190  0.22627  1.0000 0.1197304369
H   H51       1.0  0.19630  0.50820  0.39293  1.0000 0.1197304369
H   H52       1.0  0.68810  0.19630  0.55960  1.0000 0.1197304369
H   H53       1.0  0.49180  0.68810  0.72627  1.0000 0.1197304369
H   H54       1.0  0.80370  0.49180  0.89293  1.0000 0.1197304369
H   H55       1.0  0.33610  0.89940  0.09820  1.0000 0.1197304369
H   H56       1.0  0.43670  0.33610  0.26487  1.0000 0.1197304369
H   H57       1.0  0.10060  0.43670  0.43153  1.0000 0.1197304369
H   H58       1.0  0.66390  0.10060  0.59820  1.0000 0.1197304369
H   H59       1.0  0.56330  0.66390  0.76487  1.0000 0.1197304369
H   H60       1.0  0.89940  0.56330  0.93153  1.0000 0.1197304369
C   C1        1.0  0.50300  0.72180  0.33740  1.0000 0.0836638799
C   C2        1.0  0.78120  0.50300  0.50407  1.0000 0.0836638799
C   C3        1.0  0.27820  0.78120  0.67073  1.0000 0.0836638799
C   C4        1.0  0.49700  0.27820  0.83740  1.0000 0.0836638799
C   C5        1.0  0.21880  0.49700  0.00407  1.0000 0.0836638799
C   C6        1.0  0.72180  0.21880  0.17073  1.0000 0.0836638799
C   C7        1.0  0.55400  0.70730  0.13450  1.0000 0.0391564819
C   C8        1.0  0.84670  0.55400  0.30117  1.0000 0.0391564819
C   C9        1.0  0.29270  0.84670  0.46783  1.0000 0.0391564819
C   C10       1.0  0.44600  0.29270  0.63450  1.0000 0.0391564819
C   C11       1.0  0.15330  0.44600  0.80117  1.0000 0.0391564819
C   C12       1.0  0.70730  0.15330  0.96783  1.0000 0.0391564819
C   C13       1.0  0.59100  0.93850  0.15130  1.0000 -0.1779904846
C   C14       1.0  0.65250  0.59100  0.31797  1.0000 -0.1779904846
C   C15       1.0  0.06150  0.65250  0.48463  1.0000 -0.1779904846
C   C16       1.0  0.40900  0.06150  0.65130  1.0000 -0.1779904846
C   C17       1.0  0.34750  0.40900  0.81797  1.0000 -0.1779904846
C   C18       1.0  0.93850  0.34750  0.98463  1.0000 -0.1779904846
C   C19       1.0  0.44330  0.88860  0.05790  1.0000 -0.0027919798
C   C20       1.0  0.55470  0.44330  0.22457  1.0000 -0.0027919798
C   C21       1.0  0.11140  0.55470  0.39123  1.0000 -0.0027919798
C   C22       1.0  0.55670  0.11140  0.55790  1.0000 -0.0027919798
C   C23       1.0  0.44530  0.55670  0.72457  1.0000 -0.0027919798
C   C24       1.0  0.88860  0.44530  0.89123  1.0000 -0.0027919798
C   C25       1.0  0.58210  0.79330  0.10360  1.0000 -0.2078663406
C   C26       1.0  0.78880  0.58210  0.27027  1.0000 -0.2078663406
C   C27       1.0  0.20670  0.78880  0.43693  1.0000 -0.2078663406
C   C28       1.0  0.41790  0.20670  0.60360  1.0000 -0.2078663406
C   C29       1.0  0.21120  0.41790  0.77027  1.0000 -0.2078663406
C   C30       1.0  0.79330  0.21120  0.93693  1.0000 -0.2078663406
C   C31       1.0  0.45990  0.94390  0.93300  1.0000 0.5607680098
C   C32       1.0  0.51600  0.45990  0.09967  1.0000 0.5607680098
C   C33       1.0  0.05610  0.51600  0.26633  1.0000 0.5607680098
C   C34       1.0  0.54010  0.05610  0.43300  1.0000 0.5607680098
C   C35       1.0  0.48400  0.54010  0.59967  1.0000 0.5607680098
C   C36       1.0  0.94390  0.48400  0.76633  1.0000 0.5607680098
C   C37       1.0  0.53300  0.81160  0.30840  1.0000 -0.2078663406
C   C38       1.0  0.72140  0.53300  0.47507  1.0000 -0.2078663406
C   C39       1.0  0.18840  0.72140  0.64173  1.0000 -0.2078663406
C   C40       1.0  0.46700  0.18840  0.80840  1.0000 -0.2078663406
C   C41       1.0  0.27860  0.46700  0.97507  1.0000 -0.2078663406
C   C42       1.0  0.81160  0.27860  0.14173  1.0000 -0.2078663406
C   C43       1.0  0.56940  0.84670  0.18860  1.0000 0.1376401996
C   C44       1.0  0.72270  0.56940  0.35527  1.0000 0.1376401996
C   C45       1.0  0.15330  0.72270  0.52193  1.0000 0.1376401996
C   C46       1.0  0.43060  0.15330  0.68860  1.0000 0.1376401996
C   C47       1.0  0.27730  0.43060  0.85527  1.0000 0.1376401996
C   C48       1.0  0.84670  0.27730  0.02193  1.0000 0.1376401996
C   C49       1.0  0.35210  0.85500  0.10840  1.0000 -0.4257249379
C   C50       1.0  0.49710  0.35210  0.27507  1.0000 -0.4241611445
C   C51       1.0  0.14500  0.49710  0.44173  1.0000 -0.4257249379
C   C52       1.0  0.64790  0.14500  0.60840  1.0000 -0.4257249379
C   C53       1.0  0.50290  0.64790  0.77507  1.0000 -0.4257249379
C   C54       1.0  0.85500  0.50290  0.94173  1.0000 -0.4257249379
N   N1        1.0  0.50980  0.94540  0.15600  1.0000 -0.3323707813
N   N2        1.0  0.56440  0.50980  0.32267  1.0000 -0.3323707813
N   N3        1.0  0.05460  0.56440  0.48933  1.0000 -0.3323707813
N   N4        1.0  0.49020  0.05460  0.65600  1.0000 -0.3323707813
N   N5        1.0  0.43560  0.49020  0.82267  1.0000 -0.3323707813
N   N6        1.0  0.94540  0.43560  0.98933  1.0000 -0.3323707813
N   N7        1.0  0.51500  0.67110  0.25190  1.0000 -0.2440925573
N   N8        1.0  0.84390  0.51500  0.41857  1.0000 -0.2440925573
N   N9        1.0  0.32890  0.84390  0.58523  1.0000 -0.2440925573
N   N10       1.0  0.48500  0.32890  0.75190  1.0000 -0.2440925573
N   N11       1.0  0.15610  0.48500  0.91857  1.0000 -0.2440925573
N   N12       1.0  0.67110  0.15610  0.08523  1.0000 -0.2440925573
O   O1        1.0  0.50310  0.02550  0.93920  1.0000 -0.5487082982
O   O2        1.0  0.47760  0.50310  0.10587  1.0000 -0.5487082982
O   O3        1.0  0.97450  0.47760  0.27253  1.0000 -0.5487082982
O   O4        1.0  0.49690  0.97450  0.43920  1.0000 -0.5487082982
O   O5        1.0  0.52240  0.49690  0.60587  1.0000 -0.5487082982
O   O6        1.0  0.02550  0.52240  0.77253  1.0000 -0.5487082982
O   O7        1.0  0.42350  0.89810  0.82980  1.0000 -0.5695936664
O   O8        1.0  0.52540  0.42350  0.99647  1.0000 -0.5695936664
O   O9        1.0  0.10190  0.52540  0.16313  1.0000 -0.5695936664
O   O10       1.0  0.57650  0.10190  0.32980  1.0000 -0.5695936664
O   O11       1.0  0.47460  0.57650  0.49647  1.0000 -0.5695936664
O   O12       1.0  0.89810  0.47460  0.66313  1.0000 -0.5695936664
