# DDEC6 charges by PACMAN v1.1 (https://github.com/mtap-research/PACMAN-charge/)
data_BEPVID_ASR_pacman
_symmetry_space_group_name_H-M   'P 1'
_cell_length_a   11.45690000
_cell_length_b   11.47230000
_cell_length_c   13.11990000
_cell_angle_alpha   90.17600000
_cell_angle_beta   115.70500000
_cell_angle_gamma   110.14700000
_symmetry_Int_Tables_number   1
_chemical_formula_structural   Cu3H21(C5N2)4
_chemical_formula_sum   'Cu6 H42 C40 N16'
_cell_volume   1434.82585433
_cell_formula_units_Z   2
loop_
 _symmetry_equiv_pos_site_id
 _symmetry_equiv_pos_as_xyz
  1  'x, y, z'
loop_
 _atom_site_type_symbol
 _atom_site_label
 _atom_site_symmetry_multiplicity
 _atom_site_fract_x
 _atom_site_fract_y
 _atom_site_fract_z
 _atom_site_occupancy
 _atom_site_charge
Cu  Cu1  1  0.17083000  0.12028000  0.40892000  1.0 0.2306128195
Cu  Cu2  1  0.82917000  0.87972000  0.59108000  1.0 0.2306128195
Cu  Cu3  1  0.86103000  0.95045000  0.99526000  1.0 0.2355087103
Cu  Cu4  1  0.13897000  0.04955000  0.00474000  1.0 0.2306128195
Cu  Cu5  1  0.64504000  0.18393000  0.70419000  1.0 0.2465727405
Cu  Cu6  1  0.35496000  0.81607000  0.29581000  1.0 0.2465727405
H  H1  1  0.44490000  0.66070000  0.59900000  1.0 0.1498365471
H  H2  1  0.55510000  0.33930000  0.40100000  1.0 0.1498365471
H  H3  1  0.41540000  0.52150000  0.62040000  1.0 0.1498365471
H  H4  1  0.58460000  0.47850000  0.37960000  1.0 0.1498365471
H  H5  1  0.51030000  0.57990000  0.56160000  1.0 0.1498365471
H  H6  1  0.48970000  0.42010000  0.43840000  1.0 0.1498365471
H  H7  1  0.61510000  0.80990000  0.77190000  1.0 0.2773761006
H  H8  1  0.38490000  0.19010000  0.22810000  1.0 0.2773761006
H  H9  1  0.87100000  0.10510000  0.29730000  1.0 0.2865252049
H  H10  1  0.12900000  0.89490000  0.70270000  1.0 0.2865252049
H  H11  1  0.00560000  0.71410000  0.99600000  1.0 0.1579657422
H  H12  1  0.99440000  0.28590000  0.00400000  1.0 0.1579657422
H  H13  1  0.91000000  0.58070000  0.00110000  1.0 0.1388744602
H  H14  1  0.09000000  0.41930000  0.99890000  1.0 0.1388744602
H  H15  1  0.92780000  0.70220000  0.07090000  1.0 0.1498365471
H  H16  1  0.07220000  0.29780000  0.92910000  1.0 0.1498365471
H  H17  1  0.60080000  0.40670000  0.71400000  1.0 0.1388744602
H  H18  1  0.39920000  0.59330000  0.28600000  1.0 0.1388744602
H  H19  1  0.72430000  0.42400000  0.83610000  1.0 0.1330336557
H  H20  1  0.27570000  0.57600000  0.16390000  1.0 0.1330336557
H  H21  1  0.87080000  0.64370000  0.70870000  1.0 0.1388744602
H  H22  1  0.12920000  0.35630000  0.29130000  1.0 0.1388744602
H  H23  1  0.00340000  0.62210000  0.62280000  1.0 0.1148935856
H  H24  1  0.99660000  0.37790000  0.37720000  1.0 0.1148935856
H  H25  1  0.99990000  0.42540000  0.58080000  1.0 0.1388744602
H  H26  1  0.00010000  0.57460000  0.41920000  1.0 0.1388744602
H  H27  1  0.91230000  0.18020000  0.68840000  1.0 0.1498365471
H  H28  1  0.08770000  0.81980000  0.31160000  1.0 0.1498365471
H  H29  1  0.75870000  0.14150000  0.59020000  1.0 0.1330336557
H  H30  1  0.24130000  0.85850000  0.40980000  1.0 0.1330336557
H  H31  1  0.66020000  0.16580000  0.27450000  1.0 0.1498365471
H  H32  1  0.33980000  0.83420000  0.72550000  1.0 0.1498365471
H  H33  1  0.63510000  0.15790000  0.38310000  1.0 0.1498365471
H  H34  1  0.36490000  0.84210000  0.61690000  1.0 0.1498365471
H  H35  1  0.61130000  0.03500000  0.31110000  1.0 0.1579657422
H  H36  1  0.38870000  0.96500000  0.68890000  1.0 0.1579657422
H  H37  1  0.23180000  0.19320000  0.64890000  1.0 0.1498365471
H  H38  1  0.76820000  0.80680000  0.35110000  1.0 0.1498365471
H  H39  1  0.14300000  0.16760000  0.71570000  1.0 0.1498365471
H  H40  1  0.85700000  0.83240000  0.28430000  1.0 0.1498365471
H  H41  1  0.20080000  0.30280000  0.68940000  1.0 0.1498365471
H  H42  1  0.79920000  0.69720000  0.31060000  1.0 0.1498365471
C  C1  1  0.48400000  0.59730000  0.61840000  1.0 -0.4767632632
C  C2  1  0.51600000  0.40270000  0.38160000  1.0 -0.4767632632
C  C3  1  0.61060000  0.64350000  0.73373000  1.0 0.1798850821
C  C4  1  0.38940000  0.35650000  0.26627000  1.0 0.1798850821
C  C5  1  0.69935000  0.58778000  0.79862000  1.0 -0.0996452286
C  C6  1  0.30065000  0.41222000  0.20138000  1.0 -0.0996452286
C  C7  1  0.79754000  0.67670000  0.89971000  1.0 0.2068003119
C  C8  1  0.20246000  0.32330000  0.10029000  1.0 0.2068003119
C  C9  1  0.92140000  0.66760000  0.00110000  1.0 -0.4565726368
C  C10  1  0.07860000  0.33240000  0.99890000  1.0 -0.4565726368
C  C11  1  0.69670000  0.46080000  0.76716000  1.0 -0.2827085851
C  C12  1  0.30330000  0.53920000  0.23284000  1.0 -0.2827085851
C  C13  1  0.78941000  0.45985000  0.71349000  1.0 0.2596422435
C  C14  1  0.21059000  0.54015000  0.28651000  1.0 0.2596422435
C  C15  1  0.86950000  0.56480000  0.69040000  1.0 -0.1840478106
C  C16  1  0.13050000  0.43520000  0.30960000  1.0 -0.1840478106
C  C17  1  0.94870000  0.55180000  0.63960000  1.0 -0.0254587902
C  C18  1  0.05130000  0.44820000  0.36040000  1.0 -0.0254587902
C  C19  1  0.94610000  0.43500000  0.61410000  1.0 -0.1997936441
C  C20  1  0.05390000  0.56500000  0.38590000  1.0 -0.1997936441
C  C21  1  0.86310000  0.33179000  0.63832000  1.0 0.2596422435
C  C22  1  0.13690000  0.66821000  0.36168000  1.0 0.2596422435
C  C23  1  0.85480000  0.19950000  0.61615000  1.0 -0.2827085851
C  C24  1  0.14520000  0.80050000  0.38385000  1.0 -0.2827085851
C  C25  1  0.66760000  0.12350000  0.33870000  1.0 -0.4707325546
C  C26  1  0.33240000  0.87650000  0.66130000  1.0 -0.4707325546
C  C27  1  0.81948000  0.14180000  0.41346000  1.0 0.1798850821
C  C28  1  0.18052000  0.85820000  0.58654000  1.0 0.1798850821
C  C29  1  0.90046000  0.17551000  0.52941000  1.0 -0.0996452286
C  C30  1  0.09954000  0.82449000  0.47059000  1.0 -0.0996452286
C  C31  1  0.03329000  0.18030000  0.55009000  1.0 0.1798850821
C  C32  1  0.96671000  0.81970000  0.44991000  1.0 0.1798850821
C  C33  1  0.16380000  0.21390000  0.66083000  1.0 -0.4707325546
C  C34  1  0.83620000  0.78610000  0.33917000  1.0 -0.4707325546
C  C35  1  0.98338000  0.01450000  0.15123000  1.0 -0.0996452286
C  C36  1  0.01662000  0.98550000  0.84877000  1.0 -0.105841793
C  C37  1  0.70382000  0.09003000  0.81879000  1.0 -0.1229125223
C  C38  1  0.29618000  0.90997000  0.18121000  1.0 -0.1229125223
C  C39  1  0.35645000  0.15150000  0.51203000  1.0 -0.0892405993
C  C40  1  0.64355000  0.84850000  0.48797000  1.0 -0.0892405993
N  N1  1  0.76990000  0.78041000  0.89690000  1.0 -0.1997936441
N  N2  1  0.23010000  0.21959000  0.10310000  1.0 -0.1997936441
N  N3  1  0.65518000  0.75726000  0.79497000  1.0 -0.1293108015
N  N4  1  0.34482000  0.24274000  0.20503000  1.0 -0.1293108015
N  N5  1  0.78515000  0.34412000  0.68727000  1.0 -0.2913406639
N  N6  1  0.21485000  0.65588000  0.31273000  1.0 -0.2913406639
N  N7  1  0.90003000  0.12711000  0.36952000  1.0 -0.1365312187
N  N8  1  0.09997000  0.87289000  0.63048000  1.0 -0.1365312187
N  N9  1  0.03225000  0.15077000  0.45126000  1.0 -0.213108614
N  N10  1  0.96775000  0.84923000  0.54874000  1.0 -0.213108614
N  N11  1  0.05242000  0.05570000  0.24655000  1.0 -0.3299488945
N  N12  1  0.94758000  0.94430000  0.75345000  1.0 -0.3299488945
N  N13  1  0.74494000  0.03235000  0.88592000  1.0 -0.2969551234
N  N14  1  0.25506000  0.96765000  0.11408000  1.0 -0.2969551234
N  N15  1  0.46710000  0.16642000  0.58054000  1.0 -0.3299488945
N  N16  1  0.53290000  0.83358000  0.41946000  1.0 -0.3299488945
