# DDEC6 charges by PACMAN v1.1 (https://github.com/mtap-research/PACMAN-charge/)
data_2010[Co][nan]3[ASR]2
_chemical_formula_sum              "Co4 H52 C84 N28 O16"
_cell_length_a       15.2392
_cell_length_b       15.2392
_cell_length_c       16.695
_cell_angle_alpha    65.5807
_cell_angle_beta     114.419
_cell_angle_gamma    137.107

_symmetry_space_group_name_H-M    "P 1"
_symmetry_Int_Tables_number       1

loop_
  _symmetry_equiv_pos_as_xyz
  'x, y, z'

loop_
  _atom_site_type_symbol
  _atom_site_label
  _atom_site_symmetry_multiplicity
  _atom_site_fract_x
  _atom_site_fract_y
  _atom_site_fract_z
  _atom_site_occupancy
  _atom_site_charge
Co  Co1       1.0  0.50000  0.00000  0.00000  1.0000 0.771708538
Co  Co2       1.0  0.00000  0.50000  0.50000  1.0000 0.771708538
Co  Co3       1.0  0.00000  0.50000  0.00000  1.0000 0.8956518966
Co  Co4       1.0  0.50000  0.00000  0.50000  1.0000 0.8956518966
H   H1        1.0  0.79130  0.12290  0.86900  1.0000 0.1309693169
H   H2        1.0  0.12290  0.79130  0.63100  1.0000 0.1309693169
H   H3        1.0  0.20870  0.87710  0.13100  1.0000 0.1309693169
H   H4        1.0  0.87710  0.20870  0.36900  1.0000 0.1309693169
H   H5        1.0  0.95650  0.52550  0.68110  1.0000 0.1309693169
H   H6        1.0  0.52550  0.95650  0.81890  1.0000 0.1309693169
H   H7        1.0  0.04350  0.47450  0.31890  1.0000 0.1309693169
H   H8        1.0  0.47450  0.04350  0.18110  1.0000 0.1309693169
H   H9        1.0  0.93700  0.24160  0.60590  1.0000 0.1102658534
H   H10       1.0  0.24160  0.93700  0.89410  1.0000 0.1102658534
H   H11       1.0  0.06300  0.75840  0.39410  1.0000 0.1102658534
H   H12       1.0  0.75840  0.06300  0.10590  1.0000 0.1102658534
H   H13       1.0  0.61390  0.28750  0.88240  1.0000 0.1001112397
H   H14       1.0  0.28750  0.61390  0.61760  1.0000 0.1001112397
H   H15       1.0  0.38610  0.71250  0.11760  1.0000 0.1001112397
H   H16       1.0  0.71250  0.38610  0.38240  1.0000 0.1001112397
H   H17       1.0  0.58580  0.42960  0.84170  1.0000 0.1387589175
H   H18       1.0  0.42960  0.58580  0.65830  1.0000 0.1387589175
H   H19       1.0  0.41420  0.57040  0.15830  1.0000 0.1387589175
H   H20       1.0  0.57040  0.41420  0.34170  1.0000 0.1387589175
H   H21       1.0  0.33960  0.19160  0.01580  1.0000 0.1387589175
H   H22       1.0  0.19160  0.33960  0.48420  1.0000 0.1387589175
H   H23       1.0  0.66040  0.80840  0.98420  1.0000 0.1387589175
H   H24       1.0  0.80840  0.66040  0.51580  1.0000 0.1387589175
H   H25       1.0  0.37210  0.05670  0.04760  1.0000 0.1001112397
H   H26       1.0  0.05670  0.37210  0.45240  1.0000 0.1001112397
H   H27       1.0  0.62790  0.94330  0.95240  1.0000 0.1001112397
H   H28       1.0  0.94330  0.62790  0.54760  1.0000 0.1001112397
H   H29       1.0  0.18430  0.31630  0.01950  1.0000 0.1387589175
H   H30       1.0  0.31630  0.18430  0.48050  1.0000 0.1387589175
H   H31       1.0  0.81570  0.68370  0.98050  1.0000 0.1387589175
H   H32       1.0  0.68370  0.81570  0.51950  1.0000 0.1387589175
H   H33       1.0  0.06350  0.33010  0.05270  1.0000 0.1102658534
H   H34       1.0  0.33010  0.06350  0.44730  1.0000 0.1102658534
H   H35       1.0  0.93650  0.66990  0.94730  1.0000 0.1102658534
H   H36       1.0  0.66990  0.93650  0.55270  1.0000 0.1102658534
H   H37       1.0  0.18930  0.64690  0.87510  1.0000 0.1102658534
H   H38       1.0  0.64690  0.18930  0.62490  1.0000 0.1102658534
H   H39       1.0  0.81070  0.35310  0.12490  1.0000 0.1102658534
H   H40       1.0  0.35310  0.81070  0.37510  1.0000 0.1102658534
H   H41       1.0  0.31720  0.64560  0.83860  1.0000 0.1309693169
H   H42       1.0  0.64560  0.31720  0.66140  1.0000 0.1309693169
H   H43       1.0  0.68280  0.35440  0.16140  1.0000 0.1309693169
H   H44       1.0  0.35440  0.68280  0.33860  1.0000 0.1309693169
H   H45       1.0  0.45920  0.63500  0.82280  1.0000 0.2756403584
H   H46       1.0  0.63500  0.45920  0.67720  1.0000 0.2756403584
H   H47       1.0  0.54080  0.36500  0.17720  1.0000 0.2756403584
H   H48       1.0  0.36500  0.54080  0.32280  1.0000 0.2756403584
H   H49       1.0  0.85620  0.10880  0.74000  1.0000 0.3082854349
H   H50       1.0  0.10880  0.85620  0.76000  1.0000 0.3082854349
H   H51       1.0  0.14380  0.89120  0.26000  1.0000 0.3082854349
H   H52       1.0  0.89120  0.14380  0.24000  1.0000 0.3082854349
C   C1        1.0  0.76578  0.23582  0.92850  1.0000 0.5712634224
C   C2        1.0  0.23582  0.76578  0.57150  1.0000 0.5712634224
C   C3        1.0  0.23422  0.76418  0.07150  1.0000 0.5712634224
C   C4        1.0  0.76418  0.23422  0.42850  1.0000 0.5712634224
C   C5        1.0  0.82592  0.28548  0.84950  1.0000 -0.0587260591
C   C6        1.0  0.28548  0.82592  0.65050  1.0000 -0.0587260591
C   C7        1.0  0.17408  0.71452  0.15050  1.0000 -0.0587260591
C   C8        1.0  0.71452  0.17408  0.34950  1.0000 -0.0587260591
C   C9        1.0  0.87635  0.40765  0.79280  1.0000 -0.0587260591
C   C10       1.0  0.40765  0.87635  0.70720  1.0000 -0.0587260591
C   C11       1.0  0.12365  0.59235  0.20720  1.0000 -0.0587260591
C   C12       1.0  0.59235  0.12365  0.29280  1.0000 -0.0587260591
C   C13       1.0  0.87573  0.50067  0.80380  1.0000 0.5712634224
C   C14       1.0  0.50067  0.87573  0.69620  1.0000 0.5712634224
C   C15       1.0  0.12427  0.49933  0.19620  1.0000 0.5712634224
C   C16       1.0  0.49933  0.12427  0.30380  1.0000 0.5712634224
C   C17       1.0  0.82425  0.20335  0.83180  1.0000 -0.214743818
C   C18       1.0  0.20335  0.82425  0.66820  1.0000 -0.2152889025
C   C19       1.0  0.17575  0.79665  0.16820  1.0000 -0.214743818
C   C20       1.0  0.79665  0.17575  0.33180  1.0000 -0.214743818
C   C21       1.0  0.87253  0.24287  0.75750  1.0000 0.1309693169
C   C22       1.0  0.24287  0.87253  0.74250  1.0000 0.1309693169
C   C23       1.0  0.12747  0.75713  0.24250  1.0000 0.1309693169
C   C24       1.0  0.75713  0.12747  0.25750  1.0000 0.1309693169
C   C25       1.0  0.91967  0.36193  0.69960  1.0000 0.1309693169
C   C26       1.0  0.36193  0.91967  0.80040  1.0000 0.1309693169
C   C27       1.0  0.08033  0.63807  0.30040  1.0000 0.1309693169
C   C28       1.0  0.63807  0.08033  0.19960  1.0000 0.1309693169
C   C29       1.0  0.92309  0.44511  0.71820  1.0000 -0.1863478486
C   C30       1.0  0.44511  0.92309  0.78180  1.0000 -0.1863478486
C   C31       1.0  0.07691  0.55489  0.28180  1.0000 -0.1863478486
C   C32       1.0  0.55489  0.07691  0.21820  1.0000 -0.1863478486
C   C33       1.0  0.92564  0.26216  0.64380  1.0000 0.1977903332
C   C34       1.0  0.26216  0.92564  0.85620  1.0000 0.1977903332
C   C35       1.0  0.07436  0.73784  0.35620  1.0000 0.1977903332
C   C36       1.0  0.73784  0.07436  0.14380  1.0000 0.1977903332
C   C37       1.0  0.55696  0.26744  0.90930  1.0000 0.0893571052
C   C38       1.0  0.26744  0.55696  0.59070  1.0000 0.0893571052
C   C39       1.0  0.44304  0.73256  0.09070  1.0000 0.0893571052
C   C40       1.0  0.73256  0.44304  0.40930  1.0000 0.0893571052
C   C41       1.0  0.54122  0.35438  0.88440  1.0000 -0.17848445
C   C42       1.0  0.35438  0.54122  0.61560  1.0000 -0.17848445
C   C43       1.0  0.45878  0.64562  0.11560  1.0000 -0.17848445
C   C44       1.0  0.64562  0.45878  0.38440  1.0000 -0.17848445
C   C45       1.0  0.45819  0.32781  0.92400  1.0000 0.0844994385
C   C46       1.0  0.32781  0.45819  0.57600  1.0000 0.0844994385
C   C47       1.0  0.54181  0.67219  0.07600  1.0000 0.0844994385
C   C48       1.0  0.67219  0.54181  0.42400  1.0000 0.0844994385
C   C49       1.0  0.39552  0.21348  0.98680  1.0000 -0.1712675773
C   C50       1.0  0.21348  0.39552  0.51320  1.0000 -0.1712675773
C   C51       1.0  0.60448  0.78652  0.01320  1.0000 -0.1712675773
C   C52       1.0  0.78652  0.60448  0.48680  1.0000 -0.1712675773
C   C53       1.0  0.41652  0.13328  0.00590  1.0000 0.0477501537
C   C54       1.0  0.13328  0.41652  0.49410  1.0000 0.0477501537
C   C55       1.0  0.58348  0.86672  0.99410  1.0000 0.0477501537
C   C56       1.0  0.86672  0.58348  0.50590  1.0000 0.0477501537
C   C57       1.0  0.43214  0.41126  0.90300  1.0000 0.241287132
C   C58       1.0  0.41126  0.43214  0.59700  1.0000 0.241287132
C   C59       1.0  0.56786  0.58874  0.09700  1.0000 0.241287132
C   C60       1.0  0.58874  0.56786  0.40300  1.0000 0.241287132
C   C61       1.0  0.34532  0.47228  0.90490  1.0000 0.2609225709
C   C62       1.0  0.47228  0.34532  0.59510  1.0000 0.2609225709
C   C63       1.0  0.65468  0.52772  0.09510  1.0000 0.2609225709
C   C64       1.0  0.52772  0.65468  0.40490  1.0000 0.2609225709
C   C65       1.0  0.26499  0.47961  0.92430  1.0000 0.0647818457
C   C66       1.0  0.47961  0.26499  0.57570  1.0000 0.0647818457
C   C67       1.0  0.73501  0.52039  0.07570  1.0000 0.0647818457
C   C68       1.0  0.52039  0.73501  0.42430  1.0000 0.0647818457
C   C69       1.0  0.18720  0.38500  0.98930  1.0000 -0.1712675773
C   C70       1.0  0.38500  0.18720  0.51070  1.0000 -0.1712675773
C   C71       1.0  0.81280  0.61500  0.01070  1.0000 -0.1712675773
C   C72       1.0  0.61500  0.81280  0.48930  1.0000 -0.1712675773
C   C73       1.0  0.11470  0.39370  0.00860  1.0000 0.0893571052
C   C74       1.0  0.39370  0.11470  0.49140  1.0000 0.0893571052
C   C75       1.0  0.88530  0.60630  0.99140  1.0000 0.0893571052
C   C76       1.0  0.60630  0.88530  0.50860  1.0000 0.0893571052
C   C77       1.0  0.18893  0.57987  0.90470  1.0000 0.0893571052
C   C78       1.0  0.57987  0.18893  0.59530  1.0000 0.0893571052
C   C79       1.0  0.81107  0.42013  0.09530  1.0000 0.0893571052
C   C80       1.0  0.42013  0.81107  0.40470  1.0000 0.0893571052
C   C81       1.0  0.26554  0.57946  0.88190  1.0000 -0.17848445
C   C82       1.0  0.57946  0.26554  0.61810  1.0000 -0.17848445
C   C83       1.0  0.73446  0.42054  0.11810  1.0000 -0.17848445
C   C84       1.0  0.42054  0.73446  0.38190  1.0000 -0.17848445
N   N1        1.0  0.49657  0.15723  0.96860  1.0000 -0.2377588552
N   N2        1.0  0.15723  0.49657  0.53140  1.0000 -0.2377588552
N   N3        1.0  0.50343  0.84277  0.03140  1.0000 -0.2377588552
N   N4        1.0  0.84277  0.50343  0.46860  1.0000 -0.2377588552
N   N5        1.0  0.34003  0.37317  0.93860  1.0000 -0.4194966655
N   N6        1.0  0.37317  0.34003  0.56140  1.0000 -0.4194966655
N   N7        1.0  0.65997  0.62683  0.06140  1.0000 -0.4194966655
N   N8        1.0  0.62683  0.65997  0.43860  1.0000 -0.4194966655
N   N9        1.0  0.49434  0.52886  0.85080  1.0000 -0.2515579935
N   N10       1.0  0.52886  0.49434  0.64920  1.0000 -0.2515579935
N   N11       1.0  0.50566  0.47114  0.14920  1.0000 -0.2515579935
N   N12       1.0  0.47114  0.50566  0.35080  1.0000 -0.2515579935
N   N13       1.0  0.43617  0.56503  0.85270  1.0000 -0.1302953314
N   N14       1.0  0.56503  0.43617  0.64730  1.0000 -0.1302953314
N   N15       1.0  0.56383  0.43497  0.14730  1.0000 -0.1302953314
N   N16       1.0  0.43497  0.56383  0.35270  1.0000 -0.1302953314
N   N17       1.0  0.11418  0.48902  0.96730  1.0000 -0.2377588552
N   N18       1.0  0.48902  0.11418  0.53270  1.0000 -0.2377588552
N   N19       1.0  0.88582  0.51098  0.03270  1.0000 -0.2377588552
N   N20       1.0  0.51098  0.88582  0.46730  1.0000 -0.2377588552
N   N21       1.0  0.88002  0.18278  0.72040  1.0000 -0.2515579935
N   N22       1.0  0.18278  0.88002  0.77960  1.0000 -0.2515579935
N   N23       1.0  0.11998  0.81722  0.27960  1.0000 -0.2515579935
N   N24       1.0  0.81722  0.11998  0.22040  1.0000 -0.2515579935
N   N25       1.0  0.95258  0.37142  0.62730  1.0000 -0.3433703732
N   N26       1.0  0.37142  0.95258  0.87270  1.0000 -0.3433703732
N   N27       1.0  0.04742  0.62858  0.37270  1.0000 -0.3433703732
N   N28       1.0  0.62858  0.04742  0.12730  1.0000 -0.3433703732
O   O1        1.0  0.65578  0.12122  0.93270  1.0000 -0.5464671057
O   O2        1.0  0.12122  0.65578  0.56730  1.0000 -0.5464671057
O   O3        1.0  0.34422  0.87878  0.06730  1.0000 -0.5464671057
O   O4        1.0  0.87878  0.34422  0.43270  1.0000 -0.5464671057
O   O5        1.0  0.82666  0.30854  0.98410  1.0000 -0.5615456802
O   O6        1.0  0.30854  0.82666  0.51590  1.0000 -0.5615456802
O   O7        1.0  0.17334  0.69146  0.01590  1.0000 -0.5615456802
O   O8        1.0  0.69146  0.17334  0.48410  1.0000 -0.5615456802
O   O9        1.0  0.95011  0.56249  0.86750  1.0000 -0.5615456802
O   O10       1.0  0.56249  0.95011  0.63250  1.0000 -0.5615456802
O   O11       1.0  0.04989  0.43751  0.13250  1.0000 -0.5615456802
O   O12       1.0  0.43751  0.04989  0.36750  1.0000 -0.5615456802
O   O13       1.0  0.80527  0.51933  0.74310  1.0000 -0.5678403776
O   O14       1.0  0.51933  0.80527  0.75690  1.0000 -0.5678403776
O   O15       1.0  0.19473  0.48067  0.25690  1.0000 -0.5678403776
O   O16       1.0  0.48067  0.19473  0.24310  1.0000 -0.5678403776
