# DDEC6 charges by PACMAN v1.1 (https://github.com/mtap-research/PACMAN-charge/)
data_DAWWEF_ASR_pacman
_symmetry_space_group_name_H-M   'P 1'
_cell_length_a   12.58790000
_cell_length_b   12.58790000
_cell_length_c   25.09000000
_cell_angle_alpha   90.00000000
_cell_angle_beta   90.00000000
_cell_angle_gamma   90.00000000
_symmetry_Int_Tables_number   1
_chemical_formula_structural   Co3H8C16(N5O4)2
_chemical_formula_sum   'Co12 H32 C64 N40 O32'
_cell_volume   3975.64163063
_cell_formula_units_Z   4
loop_
 _symmetry_equiv_pos_site_id
 _symmetry_equiv_pos_as_xyz
  1  'x, y, z'
loop_
 _atom_site_type_symbol
 _atom_site_label
 _atom_site_symmetry_multiplicity
 _atom_site_fract_x
 _atom_site_fract_y
 _atom_site_fract_z
 _atom_site_occupancy
 _atom_site_charge
Co  Co1  1  0.32282000  0.74949000  0.12457000  1.0 0.7854088795
Co  Co2  1  0.67718000  0.25051000  0.62457000  1.0 0.7854088795
Co  Co3  1  0.75051000  0.82282000  0.87457000  1.0 0.7854088795
Co  Co4  1  0.24949000  0.17718000  0.37457000  1.0 0.7854088795
Co  Co5  1  0.17718000  0.24949000  0.62543000  1.0 0.7854088795
Co  Co6  1  0.82282000  0.75051000  0.12543000  1.0 0.7854088795
Co  Co7  1  0.74949000  0.32282000  0.87543000  1.0 0.7854088795
Co  Co8  1  0.25051000  0.67718000  0.37543000  1.0 0.7854088795
Co  Co9  1  0.56919000  0.43081000  0.25000000  1.0 1.1096968305
Co  Co10  1  0.43081000  0.56919000  0.75000000  1.0 1.1096968305
Co  Co11  1  0.06919000  0.06919000  0.00000000  1.0 1.1096968305
Co  Co12  1  0.93081000  0.93081000  0.50000000  1.0 1.1096968305
H  H1  1  0.54680000  0.70090000  0.93120000  1.0 0.1161531013
H  H2  1  0.45320000  0.29910000  0.43120000  1.0 0.1161531013
H  H3  1  0.79910000  0.04680000  0.68120000  1.0 0.1161531013
H  H4  1  0.20090000  0.95320000  0.18120000  1.0 0.1161531013
H  H5  1  0.95320000  0.20090000  0.81880000  1.0 0.1161531013
H  H6  1  0.04680000  0.79910000  0.31880000  1.0 0.1161531013
H  H7  1  0.70090000  0.54680000  0.06880000  1.0 0.1161531013
H  H8  1  0.29910000  0.45320000  0.56880000  1.0 0.1161531013
H  H9  1  0.50420000  0.91470000  0.08040000  1.0 0.15680709
H  H10  1  0.49580000  0.08530000  0.58040000  1.0 0.15680709
H  H11  1  0.58530000  0.00420000  0.83040000  1.0 0.15680709
H  H12  1  0.41470000  0.99580000  0.33040000  1.0 0.15680709
H  H13  1  0.99580000  0.41470000  0.66960000  1.0 0.15680709
H  H14  1  0.00420000  0.58530000  0.16960000  1.0 0.15680709
H  H15  1  0.91470000  0.50420000  0.91960000  1.0 0.15680709
H  H16  1  0.08530000  0.49580000  0.41960000  1.0 0.15680709
H  H17  1  0.62700000  0.92900000  0.08880000  1.0 0.1475669842
H  H18  1  0.37300000  0.07100000  0.58880000  1.0 0.1475669842
H  H19  1  0.57100000  0.12700000  0.83880000  1.0 0.1475669842
H  H20  1  0.42900000  0.87300000  0.33880000  1.0 0.1475669842
H  H21  1  0.87300000  0.42900000  0.66120000  1.0 0.1475669842
H  H22  1  0.12700000  0.57100000  0.16120000  1.0 0.1475669842
H  H23  1  0.92900000  0.62700000  0.91120000  1.0 0.1475669842
H  H24  1  0.07100000  0.37300000  0.41120000  1.0 0.1475669842
H  H25  1  0.71960000  0.91980000  0.99670000  1.0 0.1316676986
H  H26  1  0.28040000  0.08020000  0.49670000  1.0 0.1316676986
H  H27  1  0.58020000  0.21960000  0.74670000  1.0 0.1316676986
H  H28  1  0.41980000  0.78040000  0.24670000  1.0 0.1316676986
H  H29  1  0.78040000  0.41980000  0.75330000  1.0 0.1316676986
H  H30  1  0.21960000  0.58020000  0.25330000  1.0 0.1316676986
H  H31  1  0.91980000  0.71960000  0.00330000  1.0 0.1316676986
H  H32  1  0.08020000  0.28040000  0.50330000  1.0 0.1316676986
C  C1  1  0.43420000  0.57560000  0.17780000  1.0 0.5806978595
C  C2  1  0.56580000  0.42440000  0.67780000  1.0 0.5806978595
C  C3  1  0.92440000  0.93420000  0.92780000  1.0 0.5806978595
C  C4  1  0.07560000  0.06580000  0.42780000  1.0 0.5806978595
C  C5  1  0.06580000  0.07560000  0.57220000  1.0 0.5806978595
C  C6  1  0.93420000  0.92440000  0.07220000  1.0 0.5806978595
C  C7  1  0.57560000  0.43420000  0.82220000  1.0 0.5806978595
C  C8  1  0.42440000  0.56580000  0.32220000  1.0 0.5806978595
C  C9  1  0.51910000  0.65070000  0.16140000  1.0 -0.0148705814
C  C10  1  0.48090000  0.34930000  0.66140000  1.0 -0.0148705814
C  C11  1  0.84930000  0.01910000  0.91140000  1.0 -0.0148705814
C  C12  1  0.15070000  0.98090000  0.41140000  1.0 -0.0157444637
C  C13  1  0.98090000  0.15070000  0.58860000  1.0 -0.0148705814
C  C14  1  0.01910000  0.84930000  0.08860000  1.0 -0.0148705814
C  C15  1  0.65070000  0.51910000  0.83860000  1.0 -0.0148705814
C  C16  1  0.34930000  0.48090000  0.33860000  1.0 -0.0157444637
C  C17  1  0.57220000  0.78850000  0.11720000  1.0 0.3638561022
C  C18  1  0.42780000  0.21150000  0.61720000  1.0 0.3638561022
C  C19  1  0.71150000  0.07220000  0.86720000  1.0 0.3638561022
C  C20  1  0.28850000  0.92780000  0.36720000  1.0 0.3638561022
C  C21  1  0.92780000  0.28850000  0.63280000  1.0 0.3638561022
C  C22  1  0.07220000  0.71150000  0.13280000  1.0 0.3638561022
C  C23  1  0.78850000  0.57220000  0.88280000  1.0 0.3638561022
C  C24  1  0.21150000  0.42780000  0.38280000  1.0 0.3638561022
C  C25  1  0.71200000  0.59120000  0.18910000  1.0 0.5992819023
C  C26  1  0.28800000  0.40880000  0.68910000  1.0 0.5992819023
C  C27  1  0.90880000  0.21200000  0.93910000  1.0 0.5992819023
C  C28  1  0.09120000  0.78800000  0.43910000  1.0 0.5992819023
C  C29  1  0.78800000  0.09120000  0.56090000  1.0 0.5992819023
C  C30  1  0.21200000  0.90880000  0.06090000  1.0 0.5992819023
C  C31  1  0.59120000  0.71200000  0.81090000  1.0 0.5992819023
C  C32  1  0.40880000  0.28800000  0.31090000  1.0 0.5992819023
C  C33  1  0.62730000  0.65620000  0.16440000  1.0 -0.0148705814
C  C34  1  0.37270000  0.34380000  0.66440000  1.0 -0.0148705814
C  C35  1  0.84380000  0.12730000  0.91440000  1.0 -0.0148705814
C  C36  1  0.15620000  0.87270000  0.41440000  1.0 -0.0148705814
C  C37  1  0.87270000  0.15620000  0.58560000  1.0 -0.0148705814
C  C38  1  0.12730000  0.84380000  0.08560000  1.0 -0.0148705814
C  C39  1  0.65620000  0.62730000  0.83560000  1.0 -0.0148705814
C  C40  1  0.34380000  0.37270000  0.33560000  1.0 -0.0148705814
C  C41  1  0.57260000  0.75000000  0.95560000  1.0 0.1413878154
C  C42  1  0.42740000  0.25000000  0.45560000  1.0 0.1413878154
C  C43  1  0.75000000  0.07260000  0.70560000  1.0 0.1413878154
C  C44  1  0.25000000  0.92740000  0.20560000  1.0 0.1413878154
C  C45  1  0.92740000  0.25000000  0.79440000  1.0 0.1413878154
C  C46  1  0.07260000  0.75000000  0.29440000  1.0 0.1413878154
C  C47  1  0.75000000  0.57260000  0.04440000  1.0 0.1413878154
C  C48  1  0.25000000  0.42740000  0.54440000  1.0 0.1413878154
C  C49  1  0.57220000  0.87850000  0.07890000  1.0 -0.2352441523
C  C50  1  0.42780000  0.12150000  0.57890000  1.0 -0.2352441523
C  C51  1  0.62150000  0.07220000  0.82890000  1.0 -0.2352441523
C  C52  1  0.37850000  0.92780000  0.32890000  1.0 -0.2352441523
C  C53  1  0.92780000  0.37850000  0.67110000  1.0 -0.2352441523
C  C54  1  0.07220000  0.62150000  0.17110000  1.0 -0.2352441523
C  C55  1  0.87850000  0.57220000  0.92110000  1.0 -0.2352441523
C  C56  1  0.12150000  0.42780000  0.42110000  1.0 -0.2352441523
C  C57  1  0.66750000  0.86890000  0.99050000  1.0 0.0765147301
C  C58  1  0.33250000  0.13110000  0.49050000  1.0 0.0765147301
C  C59  1  0.63110000  0.16750000  0.74050000  1.0 0.0765147301
C  C60  1  0.36890000  0.83250000  0.24050000  1.0 0.0765147301
C  C61  1  0.83250000  0.36890000  0.75950000  1.0 0.0765147301
C  C62  1  0.16750000  0.63110000  0.25950000  1.0 0.0765147301
C  C63  1  0.86890000  0.66750000  0.00950000  1.0 0.0765147301
C  C64  1  0.13110000  0.33250000  0.50950000  1.0 0.0765147301
N  N1  1  0.66130000  0.74230000  0.13595000  1.0 -0.3825456437
N  N2  1  0.33870000  0.25770000  0.63595000  1.0 -0.3825456437
N  N3  1  0.75770000  0.16130000  0.88595000  1.0 -0.3825456437
N  N4  1  0.24230000  0.83870000  0.38595000  1.0 -0.3825456437
N  N5  1  0.83870000  0.24230000  0.61405000  1.0 -0.3825456437
N  N6  1  0.16130000  0.75770000  0.11405000  1.0 -0.3825456437
N  N7  1  0.74230000  0.66130000  0.86405000  1.0 -0.3825456437
N  N8  1  0.25770000  0.33870000  0.36405000  1.0 -0.3825456437
N  N9  1  0.48530000  0.73720000  0.13206000  1.0 -0.3720926541
N  N10  1  0.51470000  0.26280000  0.63206000  1.0 -0.3720926541
N  N11  1  0.76280000  0.98530000  0.88206000  1.0 -0.3720926541
N  N12  1  0.23720000  0.01470000  0.38206000  1.0 -0.3720926541
N  N13  1  0.01470000  0.23720000  0.61794000  1.0 -0.3720926541
N  N14  1  0.98530000  0.76280000  0.11794000  1.0 -0.3720926541
N  N15  1  0.73720000  0.48530000  0.86794000  1.0 -0.3720926541
N  N16  1  0.26280000  0.51470000  0.36794000  1.0 -0.3720926541
N  N17  1  0.65730000  0.81220000  0.94560000  1.0 -0.3416083652
N  N18  1  0.34270000  0.18780000  0.44560000  1.0 -0.3416083652
N  N19  1  0.68780000  0.15730000  0.69560000  1.0 -0.3416083652
N  N20  1  0.31220000  0.84270000  0.19560000  1.0 -0.3416083652
N  N21  1  0.84270000  0.31220000  0.80440000  1.0 -0.3416083652
N  N22  1  0.15730000  0.68780000  0.30440000  1.0 -0.3416083652
N  N23  1  0.81220000  0.65730000  0.05440000  1.0 -0.3416083652
N  N24  1  0.18780000  0.34270000  0.55440000  1.0 -0.3416083652
N  N25  1  0.59140000  0.84120000  0.02518000  1.0 0.1734938145
N  N26  1  0.40860000  0.15880000  0.52518000  1.0 0.1734938145
N  N27  1  0.65880000  0.09140000  0.77518000  1.0 0.1734938145
N  N28  1  0.34120000  0.90860000  0.27518000  1.0 0.1734938145
N  N29  1  0.90860000  0.34120000  0.72482000  1.0 0.1734938145
N  N30  1  0.09140000  0.65880000  0.22482000  1.0 0.1734938145
N  N31  1  0.84120000  0.59140000  0.97482000  1.0 0.1734938145
N  N32  1  0.15880000  0.40860000  0.47482000  1.0 0.1734938145
N  N33  1  0.52900000  0.76440000  0.00310000  1.0 -0.2517468195
N  N34  1  0.47100000  0.23560000  0.50310000  1.0 -0.2517468195
N  N35  1  0.73560000  0.02900000  0.75310000  1.0 -0.2517468195
N  N36  1  0.26440000  0.97100000  0.25310000  1.0 -0.2517468195
N  N37  1  0.97100000  0.26440000  0.74690000  1.0 -0.2517468195
N  N38  1  0.02900000  0.73560000  0.24690000  1.0 -0.2517468195
N  N39  1  0.76440000  0.52900000  0.99690000  1.0 -0.2517468195
N  N40  1  0.23560000  0.47100000  0.49690000  1.0 -0.2517468195
O  O1  1  0.33970000  0.60460000  0.16802000  1.0 -0.5503043418
O  O2  1  0.66030000  0.39540000  0.66802000  1.0 -0.5503043418
O  O3  1  0.89540000  0.83970000  0.91802000  1.0 -0.5503043418
O  O4  1  0.10460000  0.16030000  0.41802000  1.0 -0.5503043418
O  O5  1  0.16030000  0.10460000  0.58198000  1.0 -0.5503043418
O  O6  1  0.83970000  0.89540000  0.08198000  1.0 -0.5503043418
O  O7  1  0.60460000  0.33970000  0.83198000  1.0 -0.5503043418
O  O8  1  0.39540000  0.66030000  0.33198000  1.0 -0.5503043418
O  O9  1  0.80610000  0.61260000  0.17447000  1.0 -0.5503043418
O  O10  1  0.19390000  0.38740000  0.67447000  1.0 -0.5503043418
O  O11  1  0.88740000  0.30610000  0.92447000  1.0 -0.5503043418
O  O12  1  0.11260000  0.69390000  0.42447000  1.0 -0.5503043418
O  O13  1  0.69390000  0.11260000  0.57553000  1.0 -0.5503043418
O  O14  1  0.30610000  0.88740000  0.07553000  1.0 -0.5503043418
O  O15  1  0.61260000  0.80610000  0.82553000  1.0 -0.5503043418
O  O16  1  0.38740000  0.19390000  0.32553000  1.0 -0.5503043418
O  O17  1  0.45500000  0.48720000  0.19750000  1.0 -0.5503043418
O  O18  1  0.54500000  0.51280000  0.69750000  1.0 -0.5503043418
O  O19  1  0.01280000  0.95500000  0.94750000  1.0 -0.5609201479
O  O20  1  0.98720000  0.04500000  0.44750000  1.0 -0.5503043418
O  O21  1  0.04500000  0.98720000  0.55250000  1.0 -0.5503043418
O  O22  1  0.95500000  0.01280000  0.05250000  1.0 -0.5503043418
O  O23  1  0.48720000  0.45500000  0.80250000  1.0 -0.5609201479
O  O24  1  0.51280000  0.54500000  0.30250000  1.0 -0.5503043418
O  O25  1  0.69200000  0.51830000  0.22090000  1.0 -0.5609201479
O  O26  1  0.30800000  0.48170000  0.72090000  1.0 -0.5609201479
O  O27  1  0.98170000  0.19200000  0.97090000  1.0 -0.5609201479
O  O28  1  0.01830000  0.80800000  0.47090000  1.0 -0.5609201479
O  O29  1  0.80800000  0.01830000  0.52910000  1.0 -0.5609201479
O  O30  1  0.19200000  0.98170000  0.02910000  1.0 -0.5609201479
O  O31  1  0.51830000  0.69200000  0.77910000  1.0 -0.5609201479
O  O32  1  0.48170000  0.30800000  0.27910000  1.0 -0.5609201479
