# DDEC6 charges by PACMAN v1.1 (https://github.com/mtap-research/PACMAN-charge/)
data_2012[Cu][sra]3[ASR]1
_chemical_formula_sum              "Cu4 H16 C24 N20"
_cell_length_a       5.8145
_cell_length_b       16.88
_cell_length_c       8.9663
_cell_angle_alpha    90
_cell_angle_beta     94.078
_cell_angle_gamma    90

_symmetry_space_group_name_H-M    "P 1"
_symmetry_Int_Tables_number       1

loop_
  _symmetry_equiv_pos_as_xyz
  'x, y, z'

loop_
  _atom_site_type_symbol
  _atom_site_label
  _atom_site_symmetry_multiplicity
  _atom_site_fract_x
  _atom_site_fract_y
  _atom_site_fract_z
  _atom_site_occupancy
  _atom_site_charge
Cu  Cu1       1.0  0.75209  0.56490  0.47175  1.0000 0.2002405551
Cu  Cu2       1.0  0.24791  0.06490  0.02825  1.0000 0.2002405551
Cu  Cu3       1.0  0.24791  0.43510  0.52825  1.0000 0.2002405551
Cu  Cu4       1.0  0.75209  0.93510  0.97175  1.0000 0.2002405551
H   H1        1.0  0.71200  0.64830  0.14400  1.0000 0.1383162018
H   H2        1.0  0.28800  0.14830  0.35600  1.0000 0.1383162018
H   H3        1.0  0.28800  0.35170  0.85600  1.0000 0.1383162018
H   H4        1.0  0.71200  0.85170  0.64400  1.0000 0.1383162018
H   H5        1.0  0.88520  0.75670  0.04000  1.0000 0.1035238782
H   H6        1.0  0.11480  0.25670  0.46000  1.0000 0.1035238782
H   H7        1.0  0.11480  0.24330  0.96000  1.0000 0.1035238782
H   H8        1.0  0.88520  0.74330  0.54000  1.0000 0.1035238782
H   H9        1.0  0.24590  0.79790  0.30640  1.0000 0.1383162018
H   H10       1.0  0.75410  0.29790  0.19360  1.0000 0.1383162018
H   H11       1.0  0.75410  0.20210  0.69360  1.0000 0.1383162018
H   H12       1.0  0.24590  0.70210  0.80640  1.0000 0.1383162018
H   H13       1.0  0.43450  0.90130  0.20050  1.0000 0.1035238782
H   H14       1.0  0.56550  0.40130  0.29950  1.0000 0.1035238782
H   H15       1.0  0.56550  0.09870  0.79950  1.0000 0.1035238782
H   H16       1.0  0.43450  0.59870  0.70050  1.0000 0.1035238782
C   C1        1.0  0.33460  0.64500  0.30510  1.0000 0.2410318729
C   C2        1.0  0.66540  0.14500  0.19490  1.0000 0.2410318729
C   C3        1.0  0.66540  0.35500  0.69490  1.0000 0.2410318729
C   C4        1.0  0.33460  0.85500  0.80510  1.0000 0.2410318729
C   C5        1.0  0.45840  0.71010  0.23740  1.0000 0.0799787238
C   C6        1.0  0.54160  0.21010  0.26260  1.0000 0.0799787238
C   C7        1.0  0.54160  0.28990  0.76260  1.0000 0.0799787238
C   C8        1.0  0.45840  0.78990  0.73740  1.0000 0.0799787238
C   C9        1.0  0.65050  0.69980  0.15670  1.0000 -0.1837479595
C   C10       1.0  0.34950  0.19980  0.34330  1.0000 -0.1837479595
C   C11       1.0  0.34950  0.30020  0.84330  1.0000 -0.1837479595
C   C12       1.0  0.65050  0.80020  0.65670  1.0000 -0.1837479595
C   C13       1.0  0.75300  0.76490  0.09450  1.0000 0.0747941759
C   C14       1.0  0.24700  0.26490  0.40550  1.0000 0.0747941759
C   C15       1.0  0.24700  0.23510  0.90550  1.0000 0.0747941759
C   C16       1.0  0.75300  0.73510  0.59450  1.0000 0.0747941759
C   C17       1.0  0.37740  0.78770  0.25220  1.0000 -0.1889515046
C   C18       1.0  0.62260  0.28770  0.24780  1.0000 -0.1889515046
C   C19       1.0  0.62260  0.21230  0.74780  1.0000 -0.1889515046
C   C20       1.0  0.37740  0.71230  0.75220  1.0000 -0.1889515046
C   C21       1.0  0.49020  0.84900  0.18760  1.0000 0.0799787238
C   C22       1.0  0.50980  0.34900  0.31240  1.0000 0.0799787238
C   C23       1.0  0.50980  0.15100  0.81240  1.0000 0.0799787238
C   C24       1.0  0.49020  0.65100  0.68760  1.0000 0.0799787238
N   N1        1.0  0.42750  0.57760  0.35920  1.0000 -0.2294139091
N   N2        1.0  0.57250  0.07760  0.14080  1.0000 -0.2294139091
N   N3        1.0  0.57250  0.42240  0.64080  1.0000 -0.2294139091
N   N4        1.0  0.42750  0.92240  0.85920  1.0000 -0.2294139091
N   N5        1.0  0.24750  0.53830  0.41310  1.0000 -0.0391140121
N   N6        1.0  0.75250  0.03830  0.08690  1.0000 -0.0391140121
N   N7        1.0  0.75250  0.46170  0.58690  1.0000 -0.0391140121
N   N8        1.0  0.24750  0.96170  0.91310  1.0000 -0.0391140121
N   N9        1.0  0.05910  0.58260  0.39180  1.0000 -0.0391140121
N   N10       1.0  0.94090  0.08260  0.10820  1.0000 -0.0391140121
N   N11       1.0  0.94090  0.41740  0.60820  1.0000 -0.0391140121
N   N12       1.0  0.05910  0.91740  0.89180  1.0000 -0.0391140121
N   N13       1.0  0.11010  0.65040  0.32470  1.0000 -0.2709755722
N   N14       1.0  0.88990  0.15040  0.17530  1.0000 -0.2709755722
N   N15       1.0  0.88990  0.34960  0.67530  1.0000 -0.2709755722
N   N16       1.0  0.11010  0.84960  0.82470  1.0000 -0.2709755722
N   N17       1.0  0.67350  0.83930  0.10790  1.0000 -0.2083872419
N   N18       1.0  0.32650  0.33930  0.39210  1.0000 -0.2083872419
N   N19       1.0  0.32650  0.16070  0.89210  1.0000 -0.2083872419
N   N20       1.0  0.67350  0.66070  0.60790  1.0000 -0.2083872419
