# DDEC6 charges by PACMAN v1.1 (https://github.com/mtap-research/PACMAN-charge/)
data_GIYSIR_ASR_pacman
_symmetry_space_group_name_H-M   'P 1'
_cell_length_a   9.62500000
_cell_length_b   11.78000000
_cell_length_c   18.71400000
_cell_angle_alpha   90.00000000
_cell_angle_beta   98.18000000
_cell_angle_gamma   90.00000000
_symmetry_Int_Tables_number   1
_chemical_formula_structural   Cu4MoH28C28(S2N3)2
_chemical_formula_sum   'Cu8 Mo2 H56 C56 S8 N12'
_cell_volume   2100.25241359
_cell_formula_units_Z   2
loop_
 _symmetry_equiv_pos_site_id
 _symmetry_equiv_pos_as_xyz
  1  'x, y, z'
loop_
 _atom_site_type_symbol
 _atom_site_label
 _atom_site_symmetry_multiplicity
 _atom_site_fract_x
 _atom_site_fract_y
 _atom_site_fract_z
 _atom_site_occupancy
 _atom_site_charge
Cu  Cu1  1  0.71963000  0.36987000  0.21110000  1.0 0.3279323132
Cu  Cu2  1  0.28037000  0.36987000  0.28890000  1.0 0.3279323132
Cu  Cu3  1  0.28037000  0.63013000  0.78890000  1.0 0.3279323132
Cu  Cu4  1  0.71963000  0.63013000  0.71110000  1.0 0.3279323132
Cu  Cu5  1  0.03612000  0.37256000  0.10948000  1.0 0.3464314194
Cu  Cu6  1  0.96388000  0.37256000  0.39052000  1.0 0.3464314194
Cu  Cu7  1  0.96388000  0.62744000  0.89052000  1.0 0.3464314194
Cu  Cu8  1  0.03612000  0.62744000  0.60948000  1.0 0.3464314194
Mo  Mo1  1  0.00000000  0.37149000  0.25000000  1.0 0.80611562
Mo  Mo2  1  0.00000000  0.62851000  0.75000000  1.0 0.8031214999
H  H1  1  0.42720000  0.44710000  0.14970000  1.0 0.0975151579
H  H2  1  0.57280000  0.44710000  0.35030000  1.0 0.0975151579
H  H3  1  0.57280000  0.55290000  0.85030000  1.0 0.0975151579
H  H4  1  0.42720000  0.55290000  0.64970000  1.0 0.0975151579
H  H5  1  0.31010000  0.57830000  0.07240000  1.0 0.147920184
H  H6  1  0.68990000  0.57830000  0.42760000  1.0 0.147920184
H  H7  1  0.68990000  0.42170000  0.92760000  1.0 0.147920184
H  H8  1  0.31010000  0.42170000  0.57240000  1.0 0.147920184
H  H9  1  0.68340000  0.68570000  0.02780000  1.0 0.125224516
H  H10  1  0.31660000  0.68570000  0.47220000  1.0 0.125224516
H  H11  1  0.31660000  0.31430000  0.97220000  1.0 0.125224516
H  H12  1  0.68340000  0.31430000  0.52780000  1.0 0.125224516
H  H13  1  0.79090000  0.55440000  0.10960000  1.0 0.1094264191
H  H14  1  0.20910000  0.55440000  0.39040000  1.0 0.1094264191
H  H15  1  0.20910000  0.44560000  0.89040000  1.0 0.1094264191
H  H16  1  0.79090000  0.44560000  0.60960000  1.0 0.1094264191
H  H17  1  0.47100000  0.75850000  0.95510000  1.0 0.1094264191
H  H18  1  0.52900000  0.75850000  0.54490000  1.0 0.1094264191
H  H19  1  0.52900000  0.24150000  0.04490000  1.0 0.1094264191
H  H20  1  0.47100000  0.24150000  0.45510000  1.0 0.1094264191
H  H21  1  0.32330000  0.70200000  0.96430000  1.0 0.1194204987
H  H22  1  0.67670000  0.70200000  0.53570000  1.0 0.1194204987
H  H23  1  0.67670000  0.29800000  0.03570000  1.0 0.1194204987
H  H24  1  0.32330000  0.29800000  0.46430000  1.0 0.1194204987
H  H25  1  0.45550000  0.87660000  0.05660000  1.0 0.0896947236
H  H26  1  0.54450000  0.87660000  0.44340000  1.0 0.0896947236
H  H27  1  0.54450000  0.12340000  0.94340000  1.0 0.0896947236
H  H28  1  0.45550000  0.12340000  0.55660000  1.0 0.0896947236
H  H29  1  0.30770000  0.82030000  0.06570000  1.0 0.0975151579
H  H30  1  0.69230000  0.82030000  0.43430000  1.0 0.0975151579
H  H31  1  0.69230000  0.17970000  0.93430000  1.0 0.0975151579
H  H32  1  0.30770000  0.17970000  0.56570000  1.0 0.0975151579
H  H33  1  0.36140000  0.95340000  0.94620000  1.0 0.1194204987
H  H34  1  0.63860000  0.95340000  0.55380000  1.0 0.1194204987
H  H35  1  0.63860000  0.04660000  0.05380000  1.0 0.1194204987
H  H36  1  0.36140000  0.04660000  0.44620000  1.0 0.1194204987
H  H37  1  0.21570000  0.89070000  0.94970000  1.0 0.125224516
H  H38  1  0.78430000  0.89070000  0.55030000  1.0 0.125224516
H  H39  1  0.78430000  0.10930000  0.05030000  1.0 0.125224516
H  H40  1  0.21570000  0.10930000  0.44970000  1.0 0.125224516
H  H41  1  0.36370000  0.03320000  0.10890000  1.0 0.1356020739
H  H42  1  0.63630000  0.03320000  0.39110000  1.0 0.1356020739
H  H43  1  0.63630000  0.96680000  0.89110000  1.0 0.1356020739
H  H44  1  0.36370000  0.96680000  0.60890000  1.0 0.1356020739
H  H45  1  0.27130000  0.19360000  0.15370000  1.0 0.0975151579
H  H46  1  0.72870000  0.19360000  0.34630000  1.0 0.0975151579
H  H47  1  0.72870000  0.80640000  0.84630000  1.0 0.0975151579
H  H48  1  0.27130000  0.80640000  0.65370000  1.0 0.0975151579
H  H49  1  0.02250000  0.24090000  0.97310000  1.0 0.1094264191
H  H50  1  0.97750000  0.24090000  0.52690000  1.0 0.1094264191
H  H51  1  0.97750000  0.75910000  0.02690000  1.0 0.1094264191
H  H52  1  0.02250000  0.75910000  0.47310000  1.0 0.1094264191
H  H53  1  0.08900000  0.06690000  0.92710000  1.0 0.1356020739
H  H54  1  0.91100000  0.06690000  0.57290000  1.0 0.1356020739
H  H55  1  0.91100000  0.93310000  0.07290000  1.0 0.1356020739
H  H56  1  0.08900000  0.93310000  0.42710000  1.0 0.1356020739
C  C1  1  0.00170000  0.46860000  0.02430000  1.0 -0.3825202732
C  C2  1  0.99830000  0.46860000  0.47570000  1.0 -0.3825202732
C  C3  1  0.99830000  0.53140000  0.97570000  1.0 -0.3825202732
C  C4  1  0.00170000  0.53140000  0.52430000  1.0 -0.3825202732
C  C5  1  0.48090000  0.49770000  0.12500000  1.0 0.0688718186
C  C6  1  0.51910000  0.49770000  0.37500000  1.0 0.0688718186
C  C7  1  0.51910000  0.50230000  0.87500000  1.0 0.0688718186
C  C8  1  0.48090000  0.50230000  0.62500000  1.0 0.0688718186
C  C9  1  0.40970000  0.57570000  0.07890000  1.0 -0.1828505321
C  C10  1  0.59030000  0.57570000  0.42110000  1.0 -0.1828505321
C  C11  1  0.59030000  0.42430000  0.92110000  1.0 -0.1828505321
C  C12  1  0.40970000  0.42430000  0.57890000  1.0 -0.1828505321
C  C13  1  0.48430000  0.64970000  0.04240000  1.0 0.1656368749
C  C14  1  0.51570000  0.64970000  0.45760000  1.0 0.1656368749
C  C15  1  0.51570000  0.35030000  0.95760000  1.0 0.1656368749
C  C16  1  0.48430000  0.35030000  0.54240000  1.0 0.1656368749
C  C17  1  0.62750000  0.63850000  0.05350000  1.0 -0.2056123706
C  C18  1  0.37250000  0.63850000  0.44650000  1.0 -0.2056123706
C  C19  1  0.37250000  0.36150000  0.94650000  1.0 -0.2056123706
C  C20  1  0.62750000  0.36150000  0.55350000  1.0 -0.2056123706
C  C21  1  0.69130000  0.55870000  0.10180000  1.0 0.0896947236
C  C22  1  0.30870000  0.55870000  0.39820000  1.0 0.0896947236
C  C23  1  0.30870000  0.44130000  0.89820000  1.0 0.0896947236
C  C24  1  0.69130000  0.44130000  0.60180000  1.0 0.0896947236
C  C25  1  0.40930000  0.73660000  0.99080000  1.0 -0.2540354355
C  C26  1  0.59070000  0.73660000  0.50920000  1.0 -0.2540354355
C  C27  1  0.59070000  0.26340000  0.00920000  1.0 -0.2540354355
C  C28  1  0.40930000  0.26340000  0.49080000  1.0 -0.2540354355
C  C29  1  0.36950000  0.84230000  0.03000000  1.0 -0.1410714759
C  C30  1  0.63050000  0.84230000  0.47000000  1.0 -0.1410714759
C  C31  1  0.63050000  0.15770000  0.97000000  1.0 -0.1410714759
C  C32  1  0.36950000  0.15770000  0.53000000  1.0 -0.1410714759
C  C33  1  0.29570000  0.92870000  0.97940000  1.0 -0.2603984176
C  C34  1  0.70430000  0.92870000  0.52060000  1.0 -0.2603984176
C  C35  1  0.70430000  0.07130000  0.02060000  1.0 -0.2603984176
C  C36  1  0.29570000  0.07130000  0.47940000  1.0 -0.2603984176
C  C37  1  0.24050000  0.03360000  0.01220000  1.0 0.159336813
C  C38  1  0.75950000  0.03360000  0.48780000  1.0 0.159336813
C  C39  1  0.75950000  0.96640000  0.98780000  1.0 0.159336813
C  C40  1  0.24050000  0.96640000  0.51220000  1.0 0.159336813
C  C41  1  0.29060000  0.07310000  0.07980000  1.0 -0.2191656621
C  C42  1  0.70940000  0.07310000  0.42020000  1.0 -0.2191656621
C  C43  1  0.70940000  0.92690000  0.92020000  1.0 -0.2191656621
C  C44  1  0.29060000  0.92690000  0.57980000  1.0 -0.2191656621
C  C45  1  0.23590000  0.17020000  0.10600000  1.0 0.0688718186
C  C46  1  0.76410000  0.17020000  0.39400000  1.0 0.0688718186
C  C47  1  0.76410000  0.82980000  0.89400000  1.0 0.0688718186
C  C48  1  0.23590000  0.82980000  0.60600000  1.0 0.0688718186
C  C49  1  0.08980000  0.19560000  0.00240000  1.0 0.0783210548
C  C50  1  0.91020000  0.19560000  0.49760000  1.0 0.0783210548
C  C51  1  0.91020000  0.80440000  0.99760000  1.0 0.0783210548
C  C52  1  0.08980000  0.80440000  0.50240000  1.0 0.0783210548
C  C53  1  0.13280000  0.09350000  0.97270000  1.0 -0.2191656621
C  C54  1  0.86720000  0.09350000  0.52730000  1.0 -0.2191656621
C  C55  1  0.86720000  0.90650000  0.02730000  1.0 -0.2191656621
C  C56  1  0.13280000  0.90650000  0.47270000  1.0 -0.2191656621
S  S1  1  0.88040000  0.26523000  0.16362000  1.0 -0.5159410609
S  S2  1  0.11960000  0.26523000  0.33638000  1.0 -0.5159410609
S  S3  1  0.11960000  0.73477000  0.83638000  1.0 -0.5159410609
S  S4  1  0.88040000  0.73477000  0.66362000  1.0 -0.5159410609
S  S5  1  0.84740000  0.47840000  0.29901000  1.0 -0.4777733757
S  S6  1  0.15260000  0.47840000  0.20099000  1.0 -0.4777733757
S  S7  1  0.15260000  0.52160000  0.70099000  1.0 -0.4777733757
S  S8  1  0.84740000  0.52160000  0.79901000  1.0 -0.4777733757
N  N1  1  0.61980000  0.48870000  0.13740000  1.0 -0.2056123706
N  N2  1  0.38020000  0.48870000  0.36260000  1.0 -0.2056123706
N  N3  1  0.38020000  0.51130000  0.86260000  1.0 -0.2056123706
N  N4  1  0.61980000  0.51130000  0.63740000  1.0 -0.2056123706
N  N5  1  0.13680000  0.23280000  0.06840000  1.0 -0.1989558114
N  N6  1  0.86320000  0.23280000  0.43160000  1.0 -0.1989558114
N  N7  1  0.86320000  0.76720000  0.93160000  1.0 -0.1989558114
N  N8  1  0.13680000  0.76720000  0.56840000  1.0 -0.1989558114
N  N9  1  0.55420000  0.29420000  0.24090000  1.0 -0.0632374844
N  N10  1  0.44580000  0.29420000  0.25910000  1.0 -0.0632374844
N  N11  1  0.44580000  0.70580000  0.75910000  1.0 -0.0632374844
N  N12  1  0.55420000  0.70580000  0.74090000  1.0 -0.0632374844
