# DDEC6 charges by PACMAN v1.1 (https://github.com/mtap-research/PACMAN-charge/)
data_HAFTOZ_ASR_pacman
_symmetry_space_group_name_H-M   'P 1'
_cell_length_a   18.73180000
_cell_length_b   18.73180000
_cell_length_c   18.73180000
_cell_angle_alpha   60.00000000
_cell_angle_beta   60.00000000
_cell_angle_gamma   60.00000000
_symmetry_Int_Tables_number   1
_chemical_formula_structural   Ni4H15C30(N4O)3
_chemical_formula_sum   'Ni8 H30 C60 N24 O6'
_cell_volume   4647.54430561
_cell_formula_units_Z   2
loop_
 _symmetry_equiv_pos_site_id
 _symmetry_equiv_pos_as_xyz
  1  'x, y, z'
loop_
 _atom_site_type_symbol
 _atom_site_label
 _atom_site_symmetry_multiplicity
 _atom_site_fract_x
 _atom_site_fract_y
 _atom_site_fract_z
 _atom_site_occupancy
 _atom_site_charge
Ni  Ni1  1  0.05332000  0.05332000  0.05332000  1.0 0.6509934942
Ni  Ni2  1  0.15996000  0.94668000  0.94668000  1.0 0.6509934942
Ni  Ni3  1  0.84004000  0.05332000  0.05332000  1.0 0.6509934942
Ni  Ni4  1  0.05332000  0.05332000  0.84004000  1.0 0.6509934942
Ni  Ni5  1  0.94668000  0.94668000  0.15996000  1.0 0.6509934942
Ni  Ni6  1  0.94668000  0.15996000  0.94668000  1.0 0.6509934942
Ni  Ni7  1  0.05332000  0.84004000  0.05332000  1.0 0.6509934942
Ni  Ni8  1  0.94668000  0.94668000  0.94668000  1.0 0.6509934942
H  H1  1  0.87250000  0.12750000  0.12750000  1.0 0.3710752855
H  H2  1  0.12750000  0.87250000  0.12750000  1.0 0.3710752855
H  H3  1  0.12750000  0.87250000  0.87250000  1.0 0.3710752855
H  H4  1  0.87250000  0.12750000  0.87250000  1.0 0.3710752855
H  H5  1  0.12750000  0.12750000  0.87250000  1.0 0.3710752855
H  H6  1  0.87250000  0.87250000  0.12750000  1.0 0.3710752855
H  H7  1  0.21932000  0.07564000  0.07564000  1.0 0.1273660087
H  H8  1  0.37060000  0.92436000  0.78068000  1.0 0.1273660087
H  H9  1  0.62940000  0.07564000  0.07564000  1.0 0.1273660087
H  H10  1  0.07564000  0.21932000  0.07564000  1.0 0.1273660087
H  H11  1  0.07564000  0.21932000  0.62940000  1.0 0.1273660087
H  H12  1  0.78068000  0.92436000  0.37060000  1.0 0.1273660087
H  H13  1  0.37060000  0.92436000  0.92436000  1.0 0.1273660087
H  H14  1  0.92436000  0.37060000  0.92436000  1.0 0.1273660087
H  H15  1  0.07564000  0.62940000  0.21932000  1.0 0.1273660087
H  H16  1  0.21932000  0.07564000  0.62940000  1.0 0.1273660087
H  H17  1  0.92436000  0.78068000  0.92436000  1.0 0.1273660087
H  H18  1  0.92436000  0.37060000  0.78068000  1.0 0.1273660087
H  H19  1  0.62940000  0.07564000  0.21932000  1.0 0.1273660087
H  H20  1  0.78068000  0.92436000  0.92436000  1.0 0.1273660087
H  H21  1  0.07564000  0.62940000  0.07564000  1.0 0.1273660087
H  H22  1  0.92436000  0.78068000  0.37060000  1.0 0.1273660087
H  H23  1  0.07564000  0.07564000  0.21932000  1.0 0.1273660087
H  H24  1  0.78068000  0.37060000  0.92436000  1.0 0.1273660087
H  H25  1  0.37060000  0.78068000  0.92436000  1.0 0.1273660087
H  H26  1  0.92436000  0.92436000  0.37060000  1.0 0.1273660087
H  H27  1  0.62940000  0.21932000  0.07564000  1.0 0.1273660087
H  H28  1  0.92436000  0.92436000  0.78068000  1.0 0.1273660087
H  H29  1  0.21932000  0.62940000  0.07564000  1.0 0.1273660087
H  H30  1  0.07564000  0.07564000  0.62940000  1.0 0.1273660087
C  C1  1  0.46290000  0.00000000  0.00000000  1.0 -0.0060581778
C  C2  1  0.46290000  0.00000000  0.53710000  1.0 -0.0060581778
C  C3  1  0.53710000  0.00000000  0.00000000  1.0 -0.0060581778
C  C4  1  0.00000000  0.46290000  0.00000000  1.0 -0.0060581778
C  C5  1  0.00000000  0.46290000  0.53710000  1.0 -0.0060581778
C  C6  1  0.53710000  0.00000000  0.46290000  1.0 -0.0060581778
C  C7  1  0.00000000  0.53710000  0.46290000  1.0 -0.0060581778
C  C8  1  0.00000000  0.53710000  0.00000000  1.0 -0.0060581778
C  C9  1  0.00000000  0.00000000  0.46290000  1.0 -0.0060581778
C  C10  1  0.53710000  0.46290000  0.00000000  1.0 -0.0060581778
C  C11  1  0.46290000  0.53710000  0.00000000  1.0 -0.0018789155
C  C12  1  0.00000000  0.00000000  0.53710000  1.0 -0.0060581778
C  C13  1  0.39616000  0.00000000  0.00000000  1.0 -0.0976562482
C  C14  1  0.39616000  0.00000000  0.60384000  1.0 -0.0976562482
C  C15  1  0.60384000  0.00000000  0.00000000  1.0 -0.0976562482
C  C16  1  0.00000000  0.39616000  0.00000000  1.0 -0.0976562482
C  C17  1  0.00000000  0.39616000  0.60384000  1.0 -0.0976562482
C  C18  1  0.60384000  0.00000000  0.39616000  1.0 -0.0976562482
C  C19  1  0.00000000  0.60384000  0.39616000  1.0 -0.0976562482
C  C20  1  0.00000000  0.60384000  0.00000000  1.0 -0.0976562482
C  C21  1  0.00000000  0.00000000  0.39616000  1.0 -0.0976562482
C  C22  1  0.60384000  0.39616000  0.00000000  1.0 -0.0976562482
C  C23  1  0.39616000  0.60384000  0.00000000  1.0 -0.0976562482
C  C24  1  0.00000000  0.00000000  0.60384000  1.0 -0.0976562482
C  C25  1  0.32196000  0.00000000  0.00000000  1.0 0.0284427745
C  C26  1  0.32196000  0.00000000  0.67804000  1.0 0.0284427745
C  C27  1  0.67804000  0.00000000  0.00000000  1.0 0.0284427745
C  C28  1  0.00000000  0.32196000  0.00000000  1.0 0.0284427745
C  C29  1  0.00000000  0.32196000  0.67804000  1.0 0.0284427745
C  C30  1  0.67804000  0.00000000  0.32196000  1.0 0.0284427745
C  C31  1  0.00000000  0.67804000  0.32196000  1.0 0.0284427745
C  C32  1  0.00000000  0.67804000  0.00000000  1.0 0.0284427745
C  C33  1  0.00000000  0.00000000  0.32196000  1.0 0.0284427745
C  C34  1  0.67804000  0.32196000  0.00000000  1.0 0.0284427745
C  C35  1  0.32196000  0.67804000  0.00000000  1.0 0.0284427745
C  C36  1  0.00000000  0.00000000  0.67804000  1.0 0.0284427745
C  C37  1  0.23775000  0.04153000  0.04153000  1.0 -0.0708059552
C  C38  1  0.32081000  0.95847000  0.76225000  1.0 -0.0708059552
C  C39  1  0.67919000  0.04153000  0.04153000  1.0 -0.0708059552
C  C40  1  0.04153000  0.23775000  0.04153000  1.0 -0.0708059552
C  C41  1  0.04153000  0.23775000  0.67919000  1.0 -0.0708059552
C  C42  1  0.76225000  0.95847000  0.32081000  1.0 -0.0708059552
C  C43  1  0.32081000  0.95847000  0.95847000  1.0 -0.0708059552
C  C44  1  0.95847000  0.32081000  0.95847000  1.0 -0.0708059552
C  C45  1  0.04153000  0.67919000  0.23775000  1.0 -0.0708059552
C  C46  1  0.23775000  0.04153000  0.67919000  1.0 -0.0708059552
C  C47  1  0.95847000  0.76225000  0.95847000  1.0 -0.0708059552
C  C48  1  0.95847000  0.32081000  0.76225000  1.0 -0.0708059552
C  C49  1  0.67919000  0.04153000  0.23775000  1.0 -0.0708059552
C  C50  1  0.76225000  0.95847000  0.95847000  1.0 -0.0708059552
C  C51  1  0.04153000  0.67919000  0.04153000  1.0 -0.0708059552
C  C52  1  0.95847000  0.76225000  0.32081000  1.0 -0.0708059552
C  C53  1  0.04153000  0.04153000  0.23775000  1.0 -0.0708059552
C  C54  1  0.76225000  0.32081000  0.95847000  1.0 -0.0708059552
C  C55  1  0.32081000  0.76225000  0.95847000  1.0 -0.0708059552
C  C56  1  0.95847000  0.95847000  0.32081000  1.0 -0.0708059552
C  C57  1  0.67919000  0.23775000  0.04153000  1.0 -0.0708059552
C  C58  1  0.95847000  0.95847000  0.76225000  1.0 -0.0708059552
C  C59  1  0.23775000  0.67919000  0.04153000  1.0 -0.0708059552
C  C60  1  0.04153000  0.04153000  0.67919000  1.0 -0.0708059552
N  N1  1  0.18457000  0.02567000  0.02567000  1.0 -0.1365593108
N  N2  1  0.23591000  0.97433000  0.81543000  1.0 -0.1365593108
N  N3  1  0.76409000  0.02567000  0.02567000  1.0 -0.1365593108
N  N4  1  0.02567000  0.18457000  0.02567000  1.0 -0.1365593108
N  N5  1  0.02567000  0.18457000  0.76409000  1.0 -0.1365593108
N  N6  1  0.81543000  0.97433000  0.23591000  1.0 -0.1365593108
N  N7  1  0.23591000  0.97433000  0.97433000  1.0 -0.1365593108
N  N8  1  0.97433000  0.23591000  0.97433000  1.0 -0.1365593108
N  N9  1  0.02567000  0.76409000  0.18457000  1.0 -0.1365593108
N  N10  1  0.18457000  0.02567000  0.76409000  1.0 -0.1365593108
N  N11  1  0.97433000  0.81543000  0.97433000  1.0 -0.1365593108
N  N12  1  0.97433000  0.23591000  0.81543000  1.0 -0.1365593108
N  N13  1  0.76409000  0.02567000  0.18457000  1.0 -0.1365593108
N  N14  1  0.81543000  0.97433000  0.97433000  1.0 -0.1365593108
N  N15  1  0.02567000  0.76409000  0.02567000  1.0 -0.1365593108
N  N16  1  0.97433000  0.81543000  0.23591000  1.0 -0.1365593108
N  N17  1  0.02567000  0.02567000  0.18457000  1.0 -0.1365593108
N  N18  1  0.81543000  0.23591000  0.97433000  1.0 -0.1365593108
N  N19  1  0.23591000  0.81543000  0.97433000  1.0 -0.1365593108
N  N20  1  0.97433000  0.97433000  0.23591000  1.0 -0.1365593108
N  N21  1  0.76409000  0.18457000  0.02567000  1.0 -0.1365593108
N  N22  1  0.97433000  0.97433000  0.81543000  1.0 -0.1365593108
N  N23  1  0.18457000  0.76409000  0.02567000  1.0 -0.1365593108
N  N24  1  0.02567000  0.02567000  0.76409000  1.0 -0.1365593108
O  O1  1  0.90850000  0.09150000  0.09150000  1.0 -0.7692228228
O  O2  1  0.09150000  0.90850000  0.09150000  1.0 -0.7692228228
O  O3  1  0.09150000  0.90850000  0.90850000  1.0 -0.7692228228
O  O4  1  0.90850000  0.09150000  0.90850000  1.0 -0.7692228228
O  O5  1  0.09150000  0.09150000  0.90850000  1.0 -0.7692228228
O  O6  1  0.90850000  0.90850000  0.09150000  1.0 -0.7692228228
