# DDEC6 charges by PACMAN v1.1 (https://github.com/mtap-research/PACMAN-charge/)
data_2012[Cd][dia]3[ASR]4
_chemical_formula_sum              "Cd4 H44 C36 N8 Cl4 O12"
_cell_length_a       5.8751
_cell_length_b       15.067
_cell_length_c       16.416
_cell_angle_alpha    90
_cell_angle_beta     90
_cell_angle_gamma    90

_symmetry_space_group_name_H-M    "P 1"
_symmetry_Int_Tables_number       1

loop_
  _symmetry_equiv_pos_as_xyz
  'x, y, z'

loop_
  _atom_site_type_symbol
  _atom_site_label
  _atom_site_symmetry_multiplicity
  _atom_site_fract_x
  _atom_site_fract_y
  _atom_site_fract_z
  _atom_site_occupancy
  _atom_site_charge
Cd  Cd1       1.0  0.61300  0.41141  0.03634  1.0000 0.8034598537
Cd  Cd2       1.0  0.88700  0.58859  0.53634  1.0000 0.8034598537
Cd  Cd3       1.0  0.38700  0.91141  0.46366  1.0000 0.8034598537
Cd  Cd4       1.0  0.11300  0.08859  0.96366  1.0000 0.8034598537
H   H1        1.0  0.52920  0.61290  0.75390  1.0000 0.1328875132
H   H2        1.0  0.97080  0.38710  0.25390  1.0000 0.1328875132
H   H3        1.0  0.47080  0.11290  0.74610  1.0000 0.1328875132
H   H4        1.0  0.02920  0.88710  0.24610  1.0000 0.1328875132
H   H5        1.0  0.34800  0.62940  0.63080  1.0000 0.1113116954
H   H6        1.0  0.15200  0.37060  0.13080  1.0000 0.1113116954
H   H7        1.0  0.65200  0.12940  0.86920  1.0000 0.1113116954
H   H8        1.0  0.84800  0.87060  0.36920  1.0000 0.1113116954
H   H9        1.0  0.82290  0.49490  0.70780  1.0000 0.10064512
H   H10       1.0  0.67710  0.50510  0.20780  1.0000 0.10064512
H   H11       1.0  0.17710  0.99490  0.79220  1.0000 0.10064512
H   H12       1.0  0.32290  0.00510  0.29220  1.0000 0.10064512
H   H13       1.0  0.98810  0.47340  0.83260  1.0000 0.1328875132
H   H14       1.0  0.51190  0.52660  0.33260  1.0000 0.1328875132
H   H15       1.0  0.01190  0.97340  0.66740  1.0000 0.1328875132
H   H16       1.0  0.48810  0.02660  0.16740  1.0000 0.1328875132
H   H17       1.0  0.21330  0.44540  0.95140  1.0000 0.2487530269
H   H18       1.0  0.28670  0.55460  0.45140  1.0000 0.2487530269
H   H19       1.0  0.78670  0.94540  0.54860  1.0000 0.2487530269
H   H20       1.0  0.71330  0.05460  0.04860  1.0000 0.2487530269
H   H21       1.0  0.56470  0.53000  0.87630  1.0000 0.1113116954
H   H22       1.0  0.93530  0.47000  0.37630  1.0000 0.1113116954
H   H23       1.0  0.43530  0.03000  0.62370  1.0000 0.1113116954
H   H24       1.0  0.06470  0.97000  0.12370  1.0000 0.1113116954
H   H25       1.0  0.36270  0.57510  0.92240  1.0000 0.1328875132
H   H26       1.0  0.13730  0.42490  0.42240  1.0000 0.1328875132
H   H27       1.0  0.63730  0.07510  0.57760  1.0000 0.1328875132
H   H28       1.0  0.86270  0.92490  0.07760  1.0000 0.1328875132
H   H29       1.0  0.25770  0.36130  0.83730  1.0000 0.1113116954
H   H30       1.0  0.24230  0.63870  0.33730  1.0000 0.1113116954
H   H31       1.0  0.74230  0.86130  0.66270  1.0000 0.1113116954
H   H32       1.0  0.75770  0.13870  0.16270  1.0000 0.1113116954
H   H33       1.0  0.61810  0.29170  0.81730  1.0000 0.1113116954
H   H34       1.0  0.88190  0.70830  0.31730  1.0000 0.1113116954
H   H35       1.0  0.38190  0.79170  0.68270  1.0000 0.1113116954
H   H36       1.0  0.11810  0.20830  0.18270  1.0000 0.1113116954
H   H37       1.0  0.63150  0.39460  0.80350  1.0000 0.10064512
H   H38       1.0  0.86850  0.60540  0.30350  1.0000 0.10064512
H   H39       1.0  0.36850  0.89460  0.69650  1.0000 0.10064512
H   H40       1.0  0.13150  0.10540  0.19650  1.0000 0.10064512
H   H41       1.0  0.81000  0.31000  0.92900  1.0000 0.3352691241
H   H42       1.0  0.69000  0.69000  0.42900  1.0000 0.3352691241
H   H43       1.0  0.19000  0.81000  0.57100  1.0000 0.3352691241
H   H44       1.0  0.31000  0.19000  0.07100  1.0000 0.3352691241
C   C1        1.0  0.38650  0.58770  0.74570  1.0000 -0.1996097203
C   C2        1.0  0.11350  0.41230  0.24570  1.0000 -0.1996097203
C   C3        1.0  0.61350  0.08770  0.75430  1.0000 -0.1996097203
C   C4        1.0  0.88650  0.91230  0.25430  1.0000 -0.1996097203
C   C5        1.0  0.28100  0.53990  0.80730  1.0000 0.1527678676
C   C6        1.0  0.21900  0.46010  0.30730  1.0000 0.1527678676
C   C7        1.0  0.71900  0.03990  0.69270  1.0000 0.1527678676
C   C8        1.0  0.78100  0.96010  0.19270  1.0000 0.1527678676
C   C9        1.0  0.27620  0.59730  0.67180  1.0000 0.0888721094
C   C10       1.0  0.22380  0.40270  0.17180  1.0000 0.0888721094
C   C11       1.0  0.72380  0.09730  0.82820  1.0000 0.0888721094
C   C12       1.0  0.77620  0.90270  0.32820  1.0000 0.0888721094
C   C13       1.0  0.96730  0.51810  0.71710  1.0000 0.0754583784
C   C14       1.0  0.53270  0.48190  0.21710  1.0000 0.0754583784
C   C15       1.0  0.03270  0.01810  0.78290  1.0000 0.0754583784
C   C16       1.0  0.46730  0.98190  0.28290  1.0000 0.0754583784
C   C17       1.0  0.06480  0.50500  0.79240  1.0000 -0.1996097203
C   C18       1.0  0.43520  0.49500  0.29240  1.0000 -0.1996097203
C   C19       1.0  0.93520  0.00500  0.70760  1.0000 -0.1996097203
C   C20       1.0  0.56480  0.99500  0.20760  1.0000 -0.1996097203
C   C21       1.0  0.40230  0.52640  0.88640  1.0000 -0.1534422479
C   C22       1.0  0.09770  0.47360  0.38640  1.0000 -0.1534422479
C   C23       1.0  0.59770  0.02640  0.61360  1.0000 -0.1534422479
C   C24       1.0  0.90230  0.97360  0.11360  1.0000 -0.1534422479
C   C25       1.0  0.37100  0.35950  0.88110  1.0000 -0.0834605314
C   C26       1.0  0.12900  0.64050  0.38110  1.0000 -0.0834605314
C   C27       1.0  0.62900  0.85950  0.61890  1.0000 -0.0834605314
C   C28       1.0  0.87100  0.14050  0.11890  1.0000 -0.0834605314
C   C29       1.0  0.60750  0.34890  0.84420  1.0000 -0.036027157
C   C30       1.0  0.89250  0.65110  0.34420  1.0000 -0.036027157
C   C31       1.0  0.39250  0.84890  0.65580  1.0000 -0.036027157
C   C32       1.0  0.10750  0.15110  0.15580  1.0000 -0.036027157
C   C33       1.0  0.32130  0.28040  0.93680  1.0000 0.5667425104
C   C34       1.0  0.17870  0.71960  0.43680  1.0000 0.5667425104
C   C35       1.0  0.67870  0.78040  0.56320  1.0000 0.5667425104
C   C36       1.0  0.82130  0.21960  0.06320  1.0000 0.5667425104
N   N1        1.0  0.06890  0.56240  0.65670  1.0000 -0.2345340393
N   N2        1.0  0.43110  0.43760  0.15670  1.0000 -0.2345340393
N   N3        1.0  0.93110  0.06240  0.84330  1.0000 -0.2345340393
N   N4        1.0  0.56890  0.93760  0.34330  1.0000 -0.2345340393
N   N5        1.0  0.35570  0.44210  0.92980  1.0000 -0.3248580389
N   N6        1.0  0.14430  0.55790  0.42980  1.0000 -0.3248580389
N   N7        1.0  0.64430  0.94210  0.57020  1.0000 -0.3248580389
N   N8        1.0  0.85570  0.05790  0.07020  1.0000 -0.3248580389
Cl  Cl1       1.0  0.90090  0.53084  0.03259  1.0000 -0.5814703397
Cl  Cl2       1.0  0.59910  0.46916  0.53259  1.0000 -0.5814703397
Cl  Cl3       1.0  0.09910  0.03084  0.46741  1.0000 -0.5814703397
Cl  Cl4       1.0  0.40090  0.96916  0.96741  1.0000 -0.5814703397
O   O1        1.0  0.33640  0.29260  0.01238  1.0000 -0.5333361618
O   O2        1.0  0.16360  0.70740  0.51238  1.0000 -0.5333361618
O   O3        1.0  0.66360  0.79260  0.48762  1.0000 -0.5333361618
O   O4        1.0  0.83640  0.20740  0.98762  1.0000 -0.5333361618
O   O5        1.0  0.78050  0.35520  0.90540  1.0000 -0.4368383132
O   O6        1.0  0.71950  0.64480  0.40540  1.0000 -0.4368383132
O   O7        1.0  0.21950  0.85520  0.59460  1.0000 -0.4368383132
O   O8        1.0  0.28050  0.14480  0.09460  1.0000 -0.4368383132
O   O9        1.0  0.28190  0.20830  0.90236  1.0000 -0.5333361618
O   O10       1.0  0.21810  0.79170  0.40236  1.0000 -0.5333361618
O   O11       1.0  0.71810  0.70830  0.59764  1.0000 -0.5333361618
O   O12       1.0  0.78190  0.29170  0.09764  1.0000 -0.5333361618
