# DDEC6 charges by PACMAN v1.1 (https://github.com/mtap-research/PACMAN-charge/)
data_2010[Tm][pcu]3[ASR]1
_chemical_formula_sum              "Tm2 H36 C36 O12"
_cell_length_a       9.955
_cell_length_b       12.795
_cell_length_c       13.801
_cell_angle_alpha    69.415
_cell_angle_beta     82.562
_cell_angle_gamma    83.117

_symmetry_space_group_name_H-M    "P 1"
_symmetry_Int_Tables_number       1

loop_
  _symmetry_equiv_pos_as_xyz
  'x, y, z'

loop_
  _atom_site_type_symbol
  _atom_site_label
  _atom_site_symmetry_multiplicity
  _atom_site_fract_x
  _atom_site_fract_y
  _atom_site_fract_z
  _atom_site_occupancy
  _atom_site_charge
Tm  Tm1       1.0  0.46982  0.35965  0.62522  1.0000 1.9862483936
Tm  Tm2       1.0  0.53018  0.64035  0.37478  1.0000 1.9862483936
H   H1        1.0  0.78980  0.01860  0.58890  1.0000 0.1205228615
H   H2        1.0  0.21020  0.98140  0.41110  1.0000 0.1205228615
H   H3        1.0  0.69780  0.12440  0.59650  1.0000 0.1393163465
H   H4        1.0  0.30220  0.87560  0.40350  1.0000 0.1393163465
H   H5        1.0  0.77710  0.12640  0.49010  1.0000 0.1301405893
H   H6        1.0  0.22290  0.87360  0.50990  1.0000 0.1301405893
H   H7        1.0  0.28920  0.14940  0.32220  1.0000 0.1301405893
H   H8        1.0  0.71080  0.85060  0.67780  1.0000 0.1301405893
H   H9        1.0  0.31750  0.23430  0.37450  1.0000 0.1205228615
H   H10       1.0  0.68250  0.76570  0.62550  1.0000 0.1205228615
H   H11       1.0  0.20700  0.14880  0.42730  1.0000 0.1301405893
H   H12       1.0  0.79300  0.85120  0.57270  1.0000 0.1301405893
H   H13       1.0  0.86540  0.57690  0.70260  1.0000 0.1136814664
H   H14       1.0  0.13460  0.42310  0.29740  1.0000 0.1136814664
H   H15       1.0  0.79630  0.46750  0.71830  1.0000 0.1393163465
H   H16       1.0  0.20370  0.53250  0.28170  1.0000 0.1393163465
H   H17       1.0  0.74030  0.58270  0.64200  1.0000 0.1301405893
H   H18       1.0  0.25970  0.41730  0.35800  1.0000 0.1393163465
H   H19       1.0  0.90500  0.43310  0.30600  1.0000 0.1301405893
H   H20       1.0  0.09500  0.56690  0.69400  1.0000 0.1301405893
H   H21       1.0  0.81090  0.36770  0.40340  1.0000 0.1393163465
H   H22       1.0  0.18910  0.63230  0.59660  1.0000 0.1393163465
H   H23       1.0  0.95930  0.31780  0.38330  1.0000 0.1205228615
H   H24       1.0  0.04070  0.68220  0.61670  1.0000 0.1205228615
H   H25       1.0  0.75510  0.96710  0.82850  1.0000 0.1301405893
H   H26       1.0  0.24490  0.03290  0.17150  1.0000 0.1301405893
H   H27       1.0  0.81260  0.04010  0.88170  1.0000 0.1301405893
H   H28       1.0  0.18740  0.95990  0.11830  1.0000 0.1301405893
H   H29       1.0  0.71970  0.09700  0.79080  1.0000 0.1301405893
H   H30       1.0  0.28030  0.90300  0.20920  1.0000 0.1301405893
H   H31       1.0  0.19110  0.13170  0.01350  1.0000 0.0960508335
H   H32       1.0  0.80890  0.86830  0.98650  1.0000 0.0960508335
H   H33       1.0  0.22510  0.14950  0.89490  1.0000 0.1301405893
H   H34       1.0  0.77490  0.85050  0.10510  1.0000 0.1301405893
H   H35       1.0  0.28060  0.22820  0.94300  1.0000 0.1301405893
H   H36       1.0  0.71940  0.77180  0.05700  1.0000 0.1301405893
C   C1        1.0  0.52530  0.23550  0.44400  1.0000 0.6066078144
C   C2        1.0  0.47470  0.76450  0.55600  1.0000 0.6066078144
C   C3        1.0  0.51140  0.11170  0.47380  1.0000 -0.1118886349
C   C4        1.0  0.48860  0.88830  0.52620  1.0000 -0.1118886349
C   C5        1.0  0.61170  0.03750  0.52650  1.0000 0.0885229894
C   C6        1.0  0.38830  0.96250  0.47350  1.0000 0.0885229894
C   C7        1.0  0.72950  0.08060  0.55290  1.0000 -0.4492376548
C   C8        1.0  0.27050  0.91940  0.44710  1.0000 -0.4492376548
C   C9        1.0  0.39990  0.07620  0.44670  1.0000 0.0885229894
C   C10       1.0  0.60010  0.92380  0.55330  1.0000 0.0885229894
C   C11       1.0  0.29380  0.15980  0.38730  1.0000 -0.4384655756
C   C12       1.0  0.70620  0.84020  0.61270  1.0000 -0.4384655756
C   C13       1.0  0.73110  0.42680  0.54840  1.0000 0.6028062302
C   C14       1.0  0.26890  0.57320  0.45160  1.0000 0.6028062302
C   C15       1.0  0.87170  0.46560  0.52200  1.0000 -0.1191080463
C   C16       1.0  0.12830  0.53440  0.47800  1.0000 -0.1191080463
C   C17       1.0  0.91480  0.51980  0.58170  1.0000 0.0811325471
C   C18       1.0  0.08520  0.48020  0.41830  1.0000 0.0811325471
C   C19       1.0  0.82070  0.53840  0.66900  1.0000 -0.4323369068
C   C20       1.0  0.17930  0.46160  0.33100  1.0000 -0.4323369068
C   C21       1.0  0.95400  0.44470  0.44010  1.0000 0.0811325471
C   C22       1.0  0.04600  0.55530  0.55990  1.0000 0.0811325471
C   C23       1.0  0.90260  0.38560  0.37760  1.0000 -0.4323369068
C   C24       1.0  0.09740  0.61440  0.62240  1.0000 -0.4323369068
C   C25       1.0  0.49510  0.18290  0.80570  1.0000 0.553878029
C   C26       1.0  0.50490  0.81710  0.19430  1.0000 0.553878029
C   C27       1.0  0.49790  0.08680  0.90800  1.0000 -0.1118886349
C   C28       1.0  0.50210  0.91320  0.09200  1.0000 -0.1038837683
C   C29       1.0  0.61330  0.01450  0.92660  1.0000 0.0885229894
C   C30       1.0  0.38670  0.98550  0.07340  1.0000 0.0885229894
C   C31       1.0  0.73610  0.03140  0.85010  1.0000 -0.4323369068
C   C32       1.0  0.26390  0.96860  0.14990  1.0000 -0.4323369068
C   C33       1.0  0.38540  0.07430  0.97890  1.0000 0.0885229894
C   C34       1.0  0.61460  0.92570  0.02110  1.0000 0.0885229894
C   C35       1.0  0.25910  0.15310  0.95560  1.0000 -0.41539527
C   C36       1.0  0.74090  0.84690  0.04440  1.0000 -0.41539527
O   O1        1.0  0.47090  0.28470  0.50540  1.0000 -0.7015600008
O   O2        1.0  0.52910  0.71530  0.49460  1.0000 -0.7015600008
O   O3        1.0  0.58810  0.28460  0.36070  1.0000 -0.4492376548
O   O4        1.0  0.41190  0.71540  0.63930  1.0000 -0.4492376548
O   O5        1.0  0.70990  0.33590  0.61770  1.0000 -0.5630556148
O   O6        1.0  0.29010  0.66410  0.38230  1.0000 -0.5630556148
O   O7        1.0  0.63310  0.48670  0.50320  1.0000 -0.7185525996
O   O8        1.0  0.36690  0.51330  0.49680  1.0000 -0.7185525996
O   O9        1.0  0.49220  0.16360  0.72360  1.0000 -0.5872864825
O   O10       1.0  0.50780  0.83640  0.27640  1.0000 -0.5872864825
O   O11       1.0  0.49520  0.28010  0.80390  1.0000 -0.6024567586
O   O12       1.0  0.50480  0.71990  0.19610  1.0000 -0.6024567586
