# DDEC6 charges by PACMAN v1.1 (https://github.com/mtap-research/PACMAN-charge/)
data_2002[Mn][lvt]3[ASR]1
_chemical_formula_sum              "Mn4 P8 H88 C96 O32"
_cell_length_a       7.9137
_cell_length_b       12.7304
_cell_length_c       27.357
_cell_angle_alpha    90
_cell_angle_beta     90
_cell_angle_gamma    90

_symmetry_space_group_name_H-M    "P 1"
_symmetry_Int_Tables_number       1

loop_
  _symmetry_equiv_pos_as_xyz
  'x, y, z'

loop_
  _atom_site_type_symbol
  _atom_site_label
  _atom_site_symmetry_multiplicity
  _atom_site_fract_x
  _atom_site_fract_y
  _atom_site_fract_z
  _atom_site_occupancy
  _atom_site_charge
Mn  Mn1       1.0  0.65555  0.74247  0.97713  1.0000 1.1494653981
Mn  Mn2       1.0  0.84445  0.25753  0.47713  1.0000 1.1494653981
Mn  Mn3       1.0  0.34445  0.24247  0.52287  1.0000 1.1494653981
Mn  Mn4       1.0  0.15555  0.75753  0.02287  1.0000 1.1494653981
P   P1        1.0  0.40640  0.55152  0.03237  1.0000 1.2711368661
P   P2        1.0  0.09360  0.44848  0.53237  1.0000 1.2711368661
P   P3        1.0  0.59360  0.05152  0.46763  1.0000 1.2711368661
P   P4        1.0  0.90640  0.94848  0.96763  1.0000 1.2711368661
P   P5        1.0  0.48270  0.37191  0.43897  1.0000 1.2312672596
P   P6        1.0  0.01730  0.62809  0.93897  1.0000 1.2312672596
P   P7        1.0  0.51730  0.87191  0.06103  1.0000 1.2312672596
P   P8        1.0  0.98270  0.12809  0.56103  1.0000 1.2312672596
H   H1        1.0  0.86940  0.09690  0.08800  1.0000 0.1407500255
H   H2        1.0  0.63060  0.90310  0.58800  1.0000 0.1407500255
H   H3        1.0  0.13060  0.59690  0.41200  1.0000 0.1407500255
H   H4        1.0  0.36940  0.40310  0.91200  1.0000 0.1407500255
H   H5        1.0  0.95810  0.98800  0.10190  1.0000 0.1482751306
H   H6        1.0  0.54190  0.01200  0.60190  1.0000 0.1482751306
H   H7        1.0  0.04190  0.48800  0.39810  1.0000 0.1482751306
H   H8        1.0  0.45810  0.51200  0.89810  1.0000 0.1482751306
H   H9        1.0  0.03500  0.09630  0.12150  1.0000 0.1314725794
H   H10       1.0  0.46500  0.90370  0.62150  1.0000 0.1314725794
H   H11       1.0  0.96500  0.59630  0.37850  1.0000 0.1314725794
H   H12       1.0  0.53500  0.40370  0.87850  1.0000 0.1314725794
H   H13       1.0  0.11970  0.16260  0.24690  1.0000 0.1407500255
H   H14       1.0  0.38030  0.83740  0.74690  1.0000 0.1407500255
H   H15       1.0  0.88030  0.66260  0.25310  1.0000 0.1407500255
H   H16       1.0  0.61970  0.33740  0.75310  1.0000 0.1407500255
H   H17       1.0  0.29740  0.17710  0.21980  1.0000 0.1314725794
H   H18       1.0  0.20260  0.82290  0.71980  1.0000 0.1314725794
H   H19       1.0  0.70260  0.67710  0.28020  1.0000 0.1314725794
H   H20       1.0  0.79740  0.32290  0.78020  1.0000 0.1314725794
H   H21       1.0  0.12640  0.21170  0.19300  1.0000 0.1407500255
H   H22       1.0  0.37360  0.78830  0.69300  1.0000 0.1407500255
H   H23       1.0  0.87360  0.71170  0.30700  1.0000 0.1407500255
H   H24       1.0  0.62640  0.28830  0.80700  1.0000 0.1407500255
H   H25       1.0  0.49100  0.31400  0.16860  1.0000 0.1126881669
H   H26       1.0  0.00900  0.68600  0.66860  1.0000 0.1126881669
H   H27       1.0  0.50900  0.81400  0.33140  1.0000 0.1126881669
H   H28       1.0  0.99100  0.18600  0.83140  1.0000 0.1126881669
H   H29       1.0  0.22600  0.30000  0.28800  1.0000 0.0520507038
H   H30       1.0  0.27400  0.70000  0.78800  1.0000 0.0520507038
H   H31       1.0  0.77400  0.80000  0.21200  1.0000 0.0520507038
H   H32       1.0  0.72600  0.20000  0.71200  1.0000 0.0520507038
H   H33       1.0  0.99200  0.53800  0.11700  1.0000 0.1482751306
H   H34       1.0  0.50800  0.46200  0.61700  1.0000 0.1482751306
H   H35       1.0  0.00800  0.03800  0.38300  1.0000 0.1482751306
H   H36       1.0  0.49200  0.96200  0.88300  1.0000 0.1482751306
H   H37       1.0  0.53100  0.07900  0.30600  1.0000 0.1314725794
H   H38       1.0  0.96900  0.92100  0.80600  1.0000 0.1314725794
H   H39       1.0  0.46900  0.57900  0.19400  1.0000 0.1314725794
H   H40       1.0  0.03100  0.42100  0.69400  1.0000 0.1314725794
H   H41       1.0  0.72600  0.46300  0.28240  1.0000 0.1192086406
H   H42       1.0  0.77400  0.53700  0.78240  1.0000 0.1192086406
H   H43       1.0  0.27400  0.96300  0.21760  1.0000 0.1192086406
H   H44       1.0  0.22600  0.03700  0.71760  1.0000 0.1192086406
H   H45       1.0  0.29200  0.36400  0.22400  1.0000 0.0335168179
H   H46       1.0  0.20800  0.63600  0.72400  1.0000 0.0335168179
H   H47       1.0  0.70800  0.86400  0.27600  1.0000 0.0335168179
H   H48       1.0  0.79200  0.13600  0.77600  1.0000 0.0335168179
H   H49       1.0  0.33900  0.39000  0.10600  1.0000 0.1192086406
H   H50       1.0  0.16100  0.61000  0.60600  1.0000 0.1192086406
H   H51       1.0  0.66100  0.89000  0.39400  1.0000 0.1192086406
H   H52       1.0  0.83900  0.11000  0.89400  1.0000 0.1192086406
H   H53       1.0  0.63600  0.50000  0.36000  1.0000 0.1126881669
H   H54       1.0  0.86400  0.50000  0.86000  1.0000 0.1126881669
H   H55       1.0  0.36400  0.00000  0.14000  1.0000 0.1126881669
H   H56       1.0  0.13600  0.00000  0.64000  1.0000 0.1126881669
H   H57       1.0  0.17700  0.49000  0.18700  1.0000 0.0831389736
H   H58       1.0  0.32300  0.51000  0.68700  1.0000 0.0831389736
H   H59       1.0  0.82300  0.99000  0.31300  1.0000 0.0831389736
H   H60       1.0  0.67700  0.01000  0.81300  1.0000 0.0831389736
H   H61       1.0  0.47000  0.19300  0.37500  1.0000 0.1192086406
H   H62       1.0  0.03000  0.80700  0.87500  1.0000 0.1192086406
H   H63       1.0  0.53000  0.69300  0.12500  1.0000 0.1192086406
H   H64       1.0  0.97000  0.30700  0.62500  1.0000 0.1192086406
H   H65       1.0  0.87800  0.02700  0.18900  1.0000 0.1007680569
H   H66       1.0  0.62200  0.97300  0.68900  1.0000 0.1007680569
H   H67       1.0  0.12200  0.52700  0.31100  1.0000 0.1007680569
H   H68       1.0  0.37800  0.47300  0.81100  1.0000 0.1007680569
H   H69       1.0  0.71500  0.02900  0.14600  1.0000 0.1126881669
H   H70       1.0  0.78500  0.97100  0.64600  1.0000 0.1126881669
H   H71       1.0  0.28500  0.52900  0.35400  1.0000 0.1126881669
H   H72       1.0  0.21500  0.47100  0.85400  1.0000 0.1126881669
H   H73       1.0  0.74400  0.56500  0.07000  1.0000 0.1314725794
H   H74       1.0  0.75600  0.43500  0.57000  1.0000 0.1314725794
H   H75       1.0  0.25600  0.06500  0.43000  1.0000 0.1314725794
H   H76       1.0  0.24400  0.93500  0.93000  1.0000 0.1314725794
H   H77       1.0  0.60300  0.03700  0.23400  1.0000 0.1192086406
H   H78       1.0  0.89700  0.96300  0.73400  1.0000 0.1192086406
H   H79       1.0  0.39700  0.53700  0.26600  1.0000 0.1192086406
H   H80       1.0  0.10300  0.46300  0.76600  1.0000 0.1192086406
H   H81       1.0  0.53300  0.53000  0.44900  1.0000 0.385592566
H   H82       1.0  0.96700  0.47000  0.94900  1.0000 0.385592566
H   H83       1.0  0.46700  0.03000  0.05100  1.0000 0.385592566
H   H84       1.0  0.03300  0.97000  0.55100  1.0000 0.385592566
H   H85       1.0  0.26100  0.47000  0.98700  1.0000 0.3707146506
H   H86       1.0  0.23900  0.53000  0.48700  1.0000 0.3707146506
H   H87       1.0  0.73900  0.97000  0.51300  1.0000 0.3707146506
H   H88       1.0  0.76100  0.03000  0.01300  1.0000 0.3707146506
C   C1        1.0  0.45010  0.41160  0.11110  1.0000 -0.079552735
C   C2        1.0  0.04990  0.58840  0.61110  1.0000 -0.079552735
C   C3        1.0  0.54990  0.91160  0.38890  1.0000 -0.079552735
C   C4        1.0  0.95010  0.08840  0.88890  1.0000 -0.079552735
C   C5        1.0  0.52080  0.25120  0.35680  1.0000 -0.1115920842
C   C6        1.0  0.97920  0.74880  0.85680  1.0000 -0.1115920842
C   C7        1.0  0.47920  0.75120  0.14320  1.0000 -0.1150257875
C   C8        1.0  0.02080  0.24880  0.64320  1.0000 -0.1115920842
C   C9        1.0  0.79620  0.36100  0.20000  1.0000 -0.0602579404
C   C10       1.0  0.70380  0.63900  0.70000  1.0000 -0.0602579404
C   C11       1.0  0.20380  0.86100  0.30000  1.0000 -0.0602579404
C   C12       1.0  0.29620  0.13900  0.80000  1.0000 -0.0602579404
C   C13       1.0  0.63600  0.09790  0.24610  1.0000 -0.2697096605
C   C14       1.0  0.86400  0.90210  0.74610  1.0000 -0.2697096605
C   C15       1.0  0.36400  0.59790  0.25390  1.0000 -0.2697096605
C   C16       1.0  0.13600  0.40210  0.75390  1.0000 -0.2697096605
C   C17       1.0  0.04210  0.46390  0.17470  1.0000 -0.1708840381
C   C18       1.0  0.45790  0.53610  0.67470  1.0000 -0.1708840381
C   C19       1.0  0.95790  0.96390  0.32530  1.0000 -0.1708840381
C   C20       1.0  0.54210  0.03610  0.82530  1.0000 -0.1708840381
C   C21       1.0  0.57880  0.22670  0.30980  1.0000 0.0561960872
C   C22       1.0  0.92120  0.77330  0.80980  1.0000 0.0561960872
C   C23       1.0  0.42120  0.72670  0.19020  1.0000 0.0561960872
C   C24       1.0  0.07880  0.27330  0.69020  1.0000 0.0561960872
C   C25       1.0  0.53770  0.36970  0.14870  1.0000 -0.1610470366
C   C26       1.0  0.96230  0.63030  0.64870  1.0000 -0.1610470366
C   C27       1.0  0.46230  0.86970  0.35130  1.0000 -0.1610470366
C   C28       1.0  0.03770  0.13030  0.85130  1.0000 -0.1610470366
C   C29       1.0  0.67140  0.40980  0.30090  1.0000 -0.1490160402
C   C30       1.0  0.82860  0.59020  0.80090  1.0000 -0.1490160402
C   C31       1.0  0.32860  0.90980  0.19910  1.0000 -0.1490160402
C   C32       1.0  0.17140  0.09020  0.69910  1.0000 -0.1490160402
C   C33       1.0  0.78630  0.47030  0.12620  1.0000 0.0520507038
C   C34       1.0  0.71370  0.52970  0.62620  1.0000 0.0520507038
C   C35       1.0  0.21370  0.97030  0.37380  1.0000 0.0520507038
C   C36       1.0  0.28630  0.02970  0.87380  1.0000 0.0520507038
C   C37       1.0  0.95990  0.39640  0.20810  1.0000 0.1931850959
C   C38       1.0  0.54010  0.60360  0.70810  1.0000 0.1931850959
C   C39       1.0  0.04010  0.89640  0.29190  1.0000 0.1931850959
C   C40       1.0  0.45990  0.10360  0.79190  1.0000 0.1931850959
C   C41       1.0  0.69090  0.51390  0.08750  1.0000 -0.1115920842
C   C42       1.0  0.80910  0.48610  0.58750  1.0000 -0.1115920842
C   C43       1.0  0.30910  0.01390  0.41250  1.0000 -0.1115920842
C   C44       1.0  0.19090  0.98610  0.91250  1.0000 -0.1115920842
C   C45       1.0  0.56860  0.12570  0.29100  1.0000 -0.1297498012
C   C46       1.0  0.93140  0.87430  0.79100  1.0000 -0.1297498012
C   C47       1.0  0.43140  0.62570  0.20900  1.0000 -0.1297498012
C   C48       1.0  0.06860  0.37430  0.70900  1.0000 -0.1297498012
C   C49       1.0  0.71860  0.28100  0.23310  1.0000 -0.079552735
C   C50       1.0  0.78140  0.71900  0.73310  1.0000 -0.079552735
C   C51       1.0  0.28140  0.78100  0.26690  1.0000 -0.079552735
C   C52       1.0  0.21860  0.21900  0.76690  1.0000 -0.079552735
C   C53       1.0  0.71170  0.17880  0.21760  1.0000 0.2029292445
C   C54       1.0  0.78830  0.82120  0.71760  1.0000 0.2029292445
C   C55       1.0  0.28830  0.67880  0.28240  1.0000 0.2029292445
C   C56       1.0  0.21170  0.32120  0.78240  1.0000 0.2029292445
C   C57       1.0  0.65710  0.30680  0.28100  1.0000 0.0520507038
C   C58       1.0  0.84290  0.69320  0.78100  1.0000 0.0520507038
C   C59       1.0  0.34290  0.80680  0.21900  1.0000 0.0520507038
C   C60       1.0  0.15710  0.19320  0.71900  1.0000 0.0520507038
C   C61       1.0  0.52450  0.48880  0.08000  1.0000 -0.2070607048
C   C62       1.0  0.97550  0.51120  0.58000  1.0000 -0.2070607048
C   C63       1.0  0.47550  0.98880  0.42000  1.0000 -0.2070607048
C   C64       1.0  0.02450  0.01120  0.92000  1.0000 -0.2070607048
C   C65       1.0  0.61710  0.43070  0.34760  1.0000 -0.1297498012
C   C66       1.0  0.88290  0.56930  0.84760  1.0000 -0.1297498012
C   C67       1.0  0.38290  0.93070  0.15240  1.0000 -0.1297498012
C   C68       1.0  0.11710  0.06930  0.65240  1.0000 -0.1297498012
C   C69       1.0  0.95600  0.49770  0.13460  1.0000 -0.1297498012
C   C70       1.0  0.54400  0.50230  0.63460  1.0000 -0.1297498012
C   C71       1.0  0.04400  0.99770  0.36540  1.0000 -0.1297498012
C   C72       1.0  0.45600  0.00230  0.86540  1.0000 -0.1297498012
C   C73       1.0  0.20140  0.31630  0.24630  1.0000 0.1007680569
C   C74       1.0  0.29860  0.68370  0.74630  1.0000 0.1007680569
C   C75       1.0  0.79860  0.81630  0.25370  1.0000 0.1007680569
C   C76       1.0  0.70140  0.18370  0.75370  1.0000 0.1007680569
C   C77       1.0  0.81950  0.05080  0.15940  1.0000 0.0204559496
C   C78       1.0  0.68050  0.94920  0.65940  1.0000 0.0204559496
C   C79       1.0  0.18050  0.55080  0.34060  1.0000 0.0204559496
C   C80       1.0  0.31950  0.44920  0.84060  1.0000 0.0204559496
C   C81       1.0  0.93050  0.05870  0.11350  1.0000 -0.3965712328
C   C82       1.0  0.56950  0.94130  0.61350  1.0000 -0.3965712328
C   C83       1.0  0.06950  0.55870  0.38650  1.0000 -0.3965712328
C   C84       1.0  0.43050  0.44130  0.88650  1.0000 -0.3965712328
C   C85       1.0  0.70640  0.39920  0.15920  1.0000 0.0520507038
C   C86       1.0  0.79360  0.60080  0.65920  1.0000 0.0520507038
C   C87       1.0  0.29360  0.89920  0.34080  1.0000 0.0520507038
C   C88       1.0  0.20640  0.10080  0.84080  1.0000 0.0520507038
C   C89       1.0  0.54010  0.34970  0.37650  1.0000 -0.2003578942
C   C90       1.0  0.95990  0.65030  0.87650  1.0000 -0.2003578942
C   C91       1.0  0.45990  0.84970  0.12350  1.0000 -0.2003578942
C   C92       1.0  0.04010  0.15030  0.62350  1.0000 -0.2003578942
C   C93       1.0  0.18480  0.20730  0.22460  1.0000 -0.4705556769
C   C94       1.0  0.31520  0.79270  0.72460  1.0000 -0.4705556769
C   C95       1.0  0.81520  0.70730  0.27540  1.0000 -0.4705556769
C   C96       1.0  0.68480  0.29270  0.77540  1.0000 -0.4705556769
O   O1        1.0  0.03860  0.36590  0.25124  1.0000 -0.2279662554
O   O2        1.0  0.46140  0.63410  0.75124  1.0000 -0.2279662554
O   O3        1.0  0.96140  0.86590  0.24876  1.0000 -0.2279662554
O   O4        1.0  0.53860  0.13410  0.74876  1.0000 -0.2279662554
O   O5        1.0  0.53170  0.60180  0.99782  1.0000 -0.7493892897
O   O6        1.0  0.96830  0.39820  0.49782  1.0000 -0.7493892897
O   O7        1.0  0.46830  0.10180  0.50218  1.0000 -0.7493892897
O   O8        1.0  0.03170  0.89820  0.00218  1.0000 -0.7493892897
O   O9        1.0  0.32060  0.45380  0.00706  1.0000 -0.5435097356
O   O10       1.0  0.17940  0.54620  0.50706  1.0000 -0.5435097356
O   O11       1.0  0.67940  0.95380  0.49294  1.0000 -0.5435097356
O   O12       1.0  0.82060  0.04620  0.99294  1.0000 -0.5435097356
O   O13       1.0  0.78160  0.15900  0.17299  1.0000 -0.2003578942
O   O14       1.0  0.71840  0.84100  0.67299  1.0000 -0.2003578942
O   O15       1.0  0.21840  0.65900  0.32701  1.0000 -0.2003578942
O   O16       1.0  0.28160  0.34100  0.82701  1.0000 -0.2003578942
O   O17       1.0  0.62360  0.34430  0.47297  1.0000 -0.7767994691
O   O18       1.0  0.87640  0.65570  0.97297  1.0000 -0.7767994691
O   O19       1.0  0.37640  0.84430  0.02703  1.0000 -0.7767994691
O   O20       1.0  0.12360  0.15570  0.52703  1.0000 -0.7767994691
O   O21       1.0  0.32270  0.31320  0.45058  1.0000 -0.7387278814
O   O22       1.0  0.17730  0.68680  0.95058  1.0000 -0.7387278814
O   O23       1.0  0.67730  0.81320  0.04942  1.0000 -0.7387278814
O   O24       1.0  0.82270  0.18680  0.54942  1.0000 -0.7387278814
O   O25       1.0  0.27380  0.62270  0.05344  1.0000 -0.771466865
O   O26       1.0  0.22620  0.37730  0.55344  1.0000 -0.771466865
O   O27       1.0  0.72620  0.12270  0.44656  1.0000 -0.771466865
O   O28       1.0  0.77380  0.87730  0.94656  1.0000 -0.771466865
O   O29       1.0  0.44740  0.49320  0.44408  1.0000 -0.6008524734
O   O30       1.0  0.05260  0.50680  0.94408  1.0000 -0.6008524734
O   O31       1.0  0.55260  0.99320  0.05592  1.0000 -0.6008524734
O   O32       1.0  0.94740  0.00680  0.55592  1.0000 -0.6008524734
