# DDEC6 charges by PACMAN v1.1 (https://github.com/mtap-research/PACMAN-charge/)
data_2012[Zn][dmp]3[ASR]2
_chemical_formula_sum              "Zn4 H32 C44 N24 O8"
_cell_length_a       8.9082
_cell_length_b       10.5533
_cell_length_c       18.6627
_cell_angle_alpha    90
_cell_angle_beta     90
_cell_angle_gamma    90

_symmetry_space_group_name_H-M    "P 1"
_symmetry_Int_Tables_number       1

loop_
  _symmetry_equiv_pos_as_xyz
  'x, y, z'

loop_
  _atom_site_type_symbol
  _atom_site_label
  _atom_site_symmetry_multiplicity
  _atom_site_fract_x
  _atom_site_fract_y
  _atom_site_fract_z
  _atom_site_occupancy
  _atom_site_charge
Zn  Zn1       1.0  0.12950  0.01529  0.60093  1.0000 0.685812413
Zn  Zn2       1.0  0.62950  0.98471  0.39907  1.0000 0.685812413
Zn  Zn3       1.0  0.12950  0.48471  0.10093  1.0000 0.685812413
Zn  Zn4       1.0  0.62950  0.51529  0.89907  1.0000 0.685812413
H   H1        1.0  0.82120  0.96240  0.53000  1.0000 0.1018160874
H   H2        1.0  0.32120  0.03760  0.47000  1.0000 0.1018160874
H   H3        1.0  0.82120  0.53760  0.03000  1.0000 0.1018160874
H   H4        1.0  0.32120  0.46240  0.97000  1.0000 0.1018160874
H   H5        1.0  0.23920  0.35870  0.39960  1.0000 0.084719173
H   H6        1.0  0.73920  0.64130  0.60040  1.0000 0.084719173
H   H7        1.0  0.23920  0.14130  0.89960  1.0000 0.084719173
H   H8        1.0  0.73920  0.85870  0.10040  1.0000 0.084719173
H   H9        1.0  0.84180  0.30190  0.27230  1.0000 0.3154655093
H   H10       1.0  0.34180  0.69810  0.72770  1.0000 0.3154655093
H   H11       1.0  0.84180  0.19810  0.77230  1.0000 0.3154655093
H   H12       1.0  0.34180  0.80190  0.22770  1.0000 0.3154655093
H   H13       1.0  0.75010  0.20220  0.30810  1.0000 0.2983750397
H   H14       1.0  0.25010  0.79780  0.69190  1.0000 0.2983750397
H   H15       1.0  0.75010  0.29780  0.80810  1.0000 0.2983750397
H   H16       1.0  0.25010  0.70220  0.19190  1.0000 0.2983750397
H   H17       1.0  0.97290  0.67610  0.71300  1.0000 0.1373587766
H   H18       1.0  0.47290  0.32390  0.28700  1.0000 0.1373587766
H   H19       1.0  0.97290  0.82390  0.21300  1.0000 0.1373587766
H   H20       1.0  0.47290  0.17610  0.78700  1.0000 0.1373587766
H   H21       1.0  0.85020  0.53170  0.78680  1.0000 0.1018160874
H   H22       1.0  0.35020  0.46830  0.21320  1.0000 0.1018160874
H   H23       1.0  0.85020  0.96830  0.28680  1.0000 0.1018160874
H   H24       1.0  0.35020  0.03170  0.71320  1.0000 0.1018160874
H   H25       1.0  0.59240  0.79280  0.86380  1.0000 0.1191600406
H   H26       1.0  0.09240  0.20720  0.13620  1.0000 0.1191600406
H   H27       1.0  0.59240  0.70720  0.36380  1.0000 0.1191600406
H   H28       1.0  0.09240  0.29280  0.63620  1.0000 0.1191600406
H   H29       1.0  0.70440  0.94500  0.79170  1.0000 0.1373587766
H   H30       1.0  0.20440  0.05500  0.20830  1.0000 0.1373587766
H   H31       1.0  0.70440  0.55500  0.29170  1.0000 0.1373587766
H   H32       1.0  0.20440  0.44500  0.70830  1.0000 0.1373587766
C   C1        1.0  0.86970  0.02350  0.50260  1.0000 0.1878432626
C   C2        1.0  0.36970  0.97650  0.49740  1.0000 0.1878432626
C   C3        1.0  0.86970  0.47650  0.00260  1.0000 0.1878432626
C   C4        1.0  0.36970  0.52350  0.99740  1.0000 0.1878432626
C   C5        1.0  0.15640  0.30590  0.40520  1.0000 0.207057047
C   C6        1.0  0.65640  0.69410  0.59480  1.0000 0.207057047
C   C7        1.0  0.15640  0.19410  0.90520  1.0000 0.207057047
C   C8        1.0  0.65640  0.80590  0.09480  1.0000 0.207057047
C   C9        1.0  0.93480  0.23910  0.35980  1.0000 0.3760622361
C   C10       1.0  0.43480  0.76090  0.64020  1.0000 0.3760622361
C   C11       1.0  0.93480  0.26090  0.85980  1.0000 0.3760622361
C   C12       1.0  0.43480  0.73910  0.14020  1.0000 0.3760622361
C   C13       1.0  0.92040  0.15690  0.41880  1.0000 -0.0637010193
C   C14       1.0  0.42040  0.84310  0.58120  1.0000 -0.0637010193
C   C15       1.0  0.92040  0.34310  0.91880  1.0000 -0.0637010193
C   C16       1.0  0.42040  0.65690  0.08120  1.0000 -0.0637010193
C   C17       1.0  0.03320  0.15980  0.46770  1.0000 0.2797224814
C   C18       1.0  0.53320  0.84020  0.53230  1.0000 0.2797224814
C   C19       1.0  0.03320  0.34020  0.96770  1.0000 0.2797224814
C   C20       1.0  0.53320  0.65980  0.03230  1.0000 0.2797224814
C   C21       1.0  0.92240  0.92470  0.69570  1.0000 0.5426368409
C   C22       1.0  0.42240  0.07530  0.30430  1.0000 0.5426368409
C   C23       1.0  0.92240  0.57530  0.19570  1.0000 0.5426368409
C   C24       1.0  0.42240  0.42470  0.80430  1.0000 0.5426368409
C   C25       1.0  0.89520  0.70200  0.74300  1.0000 -0.1683202094
C   C26       1.0  0.39520  0.29800  0.25700  1.0000 -0.1683202094
C   C27       1.0  0.89520  0.79800  0.24300  1.0000 -0.1683202094
C   C28       1.0  0.39520  0.20200  0.75700  1.0000 -0.1683202094
C   C29       1.0  0.84570  0.82750  0.74400  1.0000 0.0335826122
C   C30       1.0  0.34570  0.17250  0.25600  1.0000 0.0335826122
C   C31       1.0  0.84570  0.67250  0.24400  1.0000 0.0335826122
C   C32       1.0  0.34570  0.32750  0.75600  1.0000 0.0335826122
C   C33       1.0  0.82280  0.61670  0.78890  1.0000 0.0891073974
C   C34       1.0  0.32280  0.38330  0.21110  1.0000 0.0891073974
C   C35       1.0  0.82280  0.88330  0.28890  1.0000 0.0891073974
C   C36       1.0  0.32280  0.11670  0.71110  1.0000 0.0891073974
C   C37       1.0  0.67130  0.76980  0.83380  1.0000 0.0611523961
C   C38       1.0  0.17130  0.23020  0.16620  1.0000 0.0611523961
C   C39       1.0  0.67130  0.73020  0.33380  1.0000 0.0611523961
C   C40       1.0  0.17130  0.26980  0.66620  1.0000 0.0611523961
C   C41       1.0  0.73660  0.86120  0.78960  1.0000 -0.1397065973
C   C42       1.0  0.23660  0.13880  0.21040  1.0000 -0.1397065973
C   C43       1.0  0.73660  0.63880  0.28960  1.0000 -0.1397065973
C   C44       1.0  0.23660  0.36120  0.71040  1.0000 -0.1397065973
N   N1        1.0  0.00390  0.07490  0.52180  1.0000 -0.3801097876
N   N2        1.0  0.50390  0.92510  0.47820  1.0000 -0.3801097876
N   N3        1.0  0.00390  0.42510  0.02180  1.0000 -0.3801097876
N   N4        1.0  0.50390  0.57490  0.97820  1.0000 -0.3801097876
N   N5        1.0  0.15670  0.23120  0.46390  1.0000 -0.4215838915
N   N6        1.0  0.65670  0.76880  0.53610  1.0000 -0.4215838915
N   N7        1.0  0.15670  0.26880  0.96390  1.0000 -0.4215838915
N   N8        1.0  0.65670  0.73120  0.03610  1.0000 -0.4215838915
N   N9        1.0  0.81270  0.06840  0.44070  1.0000 -0.3299621946
N   N10       1.0  0.31270  0.93160  0.55930  1.0000 -0.3299621946
N   N11       1.0  0.81270  0.43160  0.94070  1.0000 -0.3299621946
N   N12       1.0  0.31270  0.56840  0.05930  1.0000 -0.3299621946
N   N13       1.0  0.05590  0.31280  0.35620  1.0000 -0.3999803966
N   N14       1.0  0.55590  0.68720  0.64380  1.0000 -0.3999803966
N   N15       1.0  0.05590  0.18720  0.85620  1.0000 -0.3999803966
N   N16       1.0  0.55590  0.81280  0.14380  1.0000 -0.3999803966
N   N17       1.0  0.82910  0.24900  0.30680  1.0000 -0.5858758545
N   N18       1.0  0.32910  0.75100  0.69320  1.0000 -0.5858758545
N   N19       1.0  0.82910  0.25100  0.80680  1.0000 -0.5858758545
N   N20       1.0  0.32910  0.74900  0.19320  1.0000 -0.5858758545
N   N21       1.0  0.72000  0.64970  0.83410  1.0000 -0.1922948254
N   N22       1.0  0.22000  0.35030  0.16590  1.0000 -0.1922948254
N   N23       1.0  0.72000  0.85030  0.33410  1.0000 -0.1922948254
N   N24       1.0  0.22000  0.14970  0.66590  1.0000 -0.1922948254
O   O1        1.0  0.03680  0.88480  0.66130  1.0000 -0.5456873781
O   O2        1.0  0.53680  0.11520  0.33870  1.0000 -0.5456873781
O   O3        1.0  0.03680  0.61520  0.16130  1.0000 -0.5456873781
O   O4        1.0  0.53680  0.38480  0.83870  1.0000 -0.5456873781
O   O5        1.0  0.87290  0.03320  0.69400  1.0000 -0.5318240231
O   O6        1.0  0.37290  0.96680  0.30600  1.0000 -0.5318240231
O   O7        1.0  0.87290  0.46680  0.19400  1.0000 -0.5318240231
O   O8        1.0  0.37290  0.53320  0.80600  1.0000 -0.5318240231
