# DDEC6 charges by PACMAN v1.1 (https://github.com/mtap-research/PACMAN-charge/)
data_2009[Co][cds]3[ASR]1
_chemical_formula_sum              "Co8 H112 C96 O40"
_cell_length_a       22.1138
_cell_length_b       22.1138
_cell_length_c       8.0576
_cell_angle_alpha    90
_cell_angle_beta     90
_cell_angle_gamma    90

_symmetry_space_group_name_H-M    "P 1"
_symmetry_Int_Tables_number       1

loop_
  _symmetry_equiv_pos_as_xyz
  'x, y, z'

loop_
  _atom_site_type_symbol
  _atom_site_label
  _atom_site_symmetry_multiplicity
  _atom_site_fract_x
  _atom_site_fract_y
  _atom_site_fract_z
  _atom_site_occupancy
  _atom_site_charge
Co  Co1       1.0  0.75536  0.25520  0.75767  1.0000 1.0465160378
Co  Co2       1.0  0.24464  0.74480  0.75767  1.0000 1.0465160378
Co  Co3       1.0  0.74480  0.75536  0.24233  1.0000 1.0465160378
Co  Co4       1.0  0.25520  0.24464  0.24233  1.0000 1.0465160378
Co  Co5       1.0  0.25536  0.24480  0.74233  1.0000 1.0465160378
Co  Co6       1.0  0.74464  0.75520  0.74233  1.0000 1.0465160378
Co  Co7       1.0  0.24480  0.74464  0.25767  1.0000 1.0465160378
Co  Co8       1.0  0.75520  0.25536  0.25767  1.0000 1.0465160378
H   H1        1.0  0.77740  0.18450  0.00780  1.0000 0.3746261585
H   H2        1.0  0.22260  0.81550  0.00780  1.0000 0.3746261585
H   H3        1.0  0.81550  0.77740  0.99220  1.0000 0.3746261585
H   H4        1.0  0.18450  0.22260  0.99220  1.0000 0.3753532835
H   H5        1.0  0.27740  0.31550  0.49220  1.0000 0.3746261585
H   H6        1.0  0.72260  0.68450  0.49220  1.0000 0.3746261585
H   H7        1.0  0.31550  0.72260  0.50780  1.0000 0.3746261585
H   H8        1.0  0.68450  0.27740  0.50780  1.0000 0.3746261585
H   H9        1.0  0.82640  0.23420  0.00780  1.0000 0.3746261585
H   H10       1.0  0.17360  0.76580  0.00780  1.0000 0.3746261585
H   H11       1.0  0.76580  0.82640  0.99220  1.0000 0.3746261585
H   H12       1.0  0.23420  0.17360  0.99220  1.0000 0.3746261585
H   H13       1.0  0.32640  0.26580  0.49220  1.0000 0.3746261585
H   H14       1.0  0.67360  0.73420  0.49220  1.0000 0.3746261585
H   H15       1.0  0.26580  0.67360  0.50780  1.0000 0.3746261585
H   H16       1.0  0.73420  0.32640  0.50780  1.0000 0.3746261585
H   H17       1.0  0.50560  0.25640  0.63800  1.0000 0.1299173801
H   H18       1.0  0.49440  0.74360  0.63800  1.0000 0.1299173801
H   H19       1.0  0.74360  0.50560  0.36200  1.0000 0.1299173801
H   H20       1.0  0.25640  0.49440  0.36200  1.0000 0.1299173801
H   H21       1.0  0.00560  0.24360  0.86200  1.0000 0.1299173801
H   H22       1.0  0.99440  0.75640  0.86200  1.0000 0.1299173801
H   H23       1.0  0.24360  0.99440  0.13800  1.0000 0.1299173801
H   H24       1.0  0.75640  0.00560  0.13800  1.0000 0.1299173801
H   H25       1.0  0.41500  0.16900  0.99960  1.0000 0.1201299335
H   H26       1.0  0.58500  0.83100  0.99960  1.0000 0.1201299335
H   H27       1.0  0.83100  0.41500  0.00040  1.0000 0.1201299335
H   H28       1.0  0.16900  0.58500  0.00040  1.0000 0.1201299335
H   H29       1.0  0.91500  0.33100  0.50040  1.0000 0.1201299335
H   H30       1.0  0.08500  0.66900  0.50040  1.0000 0.1201299335
H   H31       1.0  0.33100  0.08500  0.49960  1.0000 0.1201299335
H   H32       1.0  0.66900  0.91500  0.49960  1.0000 0.1201299335
H   H33       1.0  0.59640  0.17680  0.01080  1.0000 0.1201299335
H   H34       1.0  0.40360  0.82320  0.01080  1.0000 0.1201299335
H   H35       1.0  0.82320  0.59640  0.98920  1.0000 0.1201299335
H   H36       1.0  0.17680  0.40360  0.98920  1.0000 0.1201299335
H   H37       1.0  0.09640  0.32320  0.48920  1.0000 0.1201299335
H   H38       1.0  0.90360  0.67680  0.48920  1.0000 0.1201299335
H   H39       1.0  0.32320  0.90360  0.51080  1.0000 0.1201299335
H   H40       1.0  0.67680  0.09640  0.51080  1.0000 0.1201299335
H   H41       1.0  0.51260  0.20780  0.33480  1.0000 0.1398529292
H   H42       1.0  0.48740  0.79220  0.33480  1.0000 0.1398529292
H   H43       1.0  0.79220  0.51260  0.66520  1.0000 0.1398529292
H   H44       1.0  0.20780  0.48740  0.66520  1.0000 0.1398529292
H   H45       1.0  0.01260  0.29220  0.16520  1.0000 0.1398529292
H   H46       1.0  0.98740  0.70780  0.16520  1.0000 0.1398529292
H   H47       1.0  0.29220  0.98740  0.83480  1.0000 0.1398529292
H   H48       1.0  0.70780  0.01260  0.83480  1.0000 0.1398529292
H   H49       1.0  0.53040  0.15010  0.43700  1.0000 0.1299173801
H   H50       1.0  0.46960  0.84990  0.43700  1.0000 0.1299173801
H   H51       1.0  0.84990  0.53040  0.56300  1.0000 0.1299173801
H   H52       1.0  0.15010  0.46960  0.56300  1.0000 0.1299173801
H   H53       1.0  0.03040  0.34990  0.06300  1.0000 0.1299173801
H   H54       1.0  0.96960  0.65010  0.06300  1.0000 0.1299173801
H   H55       1.0  0.34990  0.96960  0.93700  1.0000 0.1299173801
H   H56       1.0  0.65010  0.03040  0.93700  1.0000 0.1299173801
H   H57       1.0  0.57600  0.17750  0.30840  1.0000 0.1299173801
H   H58       1.0  0.42400  0.82250  0.30840  1.0000 0.1299173801
H   H59       1.0  0.82250  0.57600  0.69160  1.0000 0.1299173801
H   H60       1.0  0.17750  0.42400  0.69160  1.0000 0.1299173801
H   H61       1.0  0.07600  0.32250  0.19160  1.0000 0.1299173801
H   H62       1.0  0.92400  0.67750  0.19160  1.0000 0.1299173801
H   H63       1.0  0.32250  0.92400  0.80840  1.0000 0.1299173801
H   H64       1.0  0.67750  0.07600  0.80840  1.0000 0.1299173801
H   H65       1.0  0.54890  0.05250  0.27630  1.0000 0.1299173801
H   H66       1.0  0.45110  0.94750  0.27630  1.0000 0.1299173801
H   H67       1.0  0.94750  0.54890  0.72370  1.0000 0.1299173801
H   H68       1.0  0.05250  0.45110  0.72370  1.0000 0.1299173801
H   H69       1.0  0.04890  0.44750  0.22370  1.0000 0.1299173801
H   H70       1.0  0.95110  0.55250  0.22370  1.0000 0.1299173801
H   H71       1.0  0.44750  0.95110  0.77630  1.0000 0.1299173801
H   H72       1.0  0.55250  0.04890  0.77630  1.0000 0.1299173801
H   H73       1.0  0.53170  0.04960  0.08770  1.0000 0.1299173801
H   H74       1.0  0.46830  0.95040  0.08770  1.0000 0.1299173801
H   H75       1.0  0.95040  0.53170  0.91230  1.0000 0.1299173801
H   H76       1.0  0.04960  0.46830  0.91230  1.0000 0.1299173801
H   H77       1.0  0.03170  0.45040  0.41230  1.0000 0.1299173801
H   H78       1.0  0.96830  0.54960  0.41230  1.0000 0.1299173801
H   H79       1.0  0.45040  0.96830  0.58770  1.0000 0.1299173801
H   H80       1.0  0.54960  0.03170  0.58770  1.0000 0.1299173801
H   H81       1.0  0.58760  0.08770  0.14520  1.0000 0.1201299335
H   H82       1.0  0.41240  0.91230  0.14520  1.0000 0.1201299335
H   H83       1.0  0.91230  0.58760  0.85480  1.0000 0.1201299335
H   H84       1.0  0.08770  0.41240  0.85480  1.0000 0.1201299335
H   H85       1.0  0.08760  0.41230  0.35480  1.0000 0.1201299335
H   H86       1.0  0.91240  0.58770  0.35480  1.0000 0.1201299335
H   H87       1.0  0.41230  0.91240  0.64520  1.0000 0.1201299335
H   H88       1.0  0.58770  0.08760  0.64520  1.0000 0.1201299335
H   H89       1.0  0.41860  0.14240  0.26170  1.0000 0.1398529292
H   H90       1.0  0.58140  0.85760  0.26170  1.0000 0.1398529292
H   H91       1.0  0.85760  0.41860  0.73830  1.0000 0.1398529292
H   H92       1.0  0.14240  0.58140  0.73830  1.0000 0.1398529292
H   H93       1.0  0.91860  0.35760  0.23830  1.0000 0.1398529292
H   H94       1.0  0.08140  0.64240  0.23830  1.0000 0.1398529292
H   H95       1.0  0.35760  0.08140  0.76170  1.0000 0.1398529292
H   H96       1.0  0.64240  0.91860  0.76170  1.0000 0.1398529292
H   H97       1.0  0.42870  0.08170  0.16500  1.0000 0.1299173801
H   H98       1.0  0.57130  0.91830  0.16500  1.0000 0.1299173801
H   H99       1.0  0.91830  0.42870  0.83500  1.0000 0.1299173801
H   H100      1.0  0.08170  0.57130  0.83500  1.0000 0.1299173801
H   H101      1.0  0.92870  0.41830  0.33500  1.0000 0.1299173801
H   H102      1.0  0.07130  0.58170  0.33500  1.0000 0.1299173801
H   H103      1.0  0.41830  0.07130  0.66500  1.0000 0.1299173801
H   H104      1.0  0.58170  0.92870  0.66500  1.0000 0.1299173801
H   H105      1.0  0.44790  0.08680  0.35180  1.0000 0.1299173801
H   H106      1.0  0.55210  0.91320  0.35180  1.0000 0.1299173801
H   H107      1.0  0.91320  0.44790  0.64820  1.0000 0.1299173801
H   H108      1.0  0.08680  0.55210  0.64820  1.0000 0.1299173801
H   H109      1.0  0.94790  0.41320  0.14820  1.0000 0.1299173801
H   H110      1.0  0.05210  0.58680  0.14820  1.0000 0.1299173801
H   H111      1.0  0.41320  0.05210  0.85180  1.0000 0.1299173801
H   H112      1.0  0.58680  0.94790  0.85180  1.0000 0.1299173801
C   C1        1.0  0.55999  0.21986  0.81450  1.0000 -0.0377723227
C   C2        1.0  0.44001  0.78014  0.81450  1.0000 -0.0377723227
C   C3        1.0  0.78014  0.55999  0.18550  1.0000 -0.0377723227
C   C4        1.0  0.21986  0.44001  0.18550  1.0000 -0.0377723227
C   C5        1.0  0.05999  0.28014  0.68550  1.0000 -0.0377723227
C   C6        1.0  0.94001  0.71986  0.68550  1.0000 -0.0377723227
C   C7        1.0  0.28014  0.94001  0.31450  1.0000 -0.0377723227
C   C8        1.0  0.71986  0.05999  0.31450  1.0000 -0.0377723227
C   C9        1.0  0.50563  0.23438  0.73635  1.0000 -0.1116925238
C   C10       1.0  0.49437  0.76562  0.73635  1.0000 -0.1116925238
C   C11       1.0  0.76562  0.50563  0.26365  1.0000 -0.1116925238
C   C12       1.0  0.23438  0.49437  0.26365  1.0000 -0.1116925238
C   C13       1.0  0.00563  0.26562  0.76365  1.0000 -0.1116925238
C   C14       1.0  0.99437  0.73438  0.76365  1.0000 -0.1116925238
C   C15       1.0  0.26562  0.99437  0.23635  1.0000 -0.1116925238
C   C16       1.0  0.73438  0.00563  0.23635  1.0000 -0.1116925238
C   C17       1.0  0.45116  0.21548  0.80728  1.0000 -0.0268507423
C   C18       1.0  0.54884  0.78452  0.80728  1.0000 -0.0268507423
C   C19       1.0  0.78452  0.45116  0.19272  1.0000 -0.0268507423
C   C20       1.0  0.21548  0.54884  0.19272  1.0000 -0.0268507423
C   C21       1.0  0.95116  0.28452  0.69272  1.0000 -0.0268507423
C   C22       1.0  0.04884  0.71548  0.69272  1.0000 -0.0268507423
C   C23       1.0  0.28452  0.04884  0.30728  1.0000 -0.0268507423
C   C24       1.0  0.71548  0.95116  0.30728  1.0000 -0.0268507423
C   C25       1.0  0.45158  0.18148  0.95396  1.0000 -0.1116925238
C   C26       1.0  0.54842  0.81852  0.95396  1.0000 -0.1116925238
C   C27       1.0  0.81852  0.45158  0.04604  1.0000 -0.1116925238
C   C28       1.0  0.18148  0.54842  0.04604  1.0000 -0.1169523427
C   C29       1.0  0.95158  0.31852  0.54604  1.0000 -0.1116925238
C   C30       1.0  0.04842  0.68148  0.54604  1.0000 -0.1116925238
C   C31       1.0  0.31852  0.04842  0.45396  1.0000 -0.1116925238
C   C32       1.0  0.68148  0.95158  0.45396  1.0000 -0.1116925238
C   C33       1.0  0.50566  0.16582  0.03363  1.0000 0.0592541343
C   C34       1.0  0.49434  0.83418  0.03363  1.0000 0.0592541343
C   C35       1.0  0.83418  0.50566  0.96637  1.0000 0.0592541343
C   C36       1.0  0.16582  0.49434  0.96637  1.0000 0.0592541343
C   C37       1.0  0.00566  0.33418  0.46637  1.0000 0.0592541343
C   C38       1.0  0.99434  0.66582  0.46637  1.0000 0.0592541343
C   C39       1.0  0.33418  0.99434  0.53363  1.0000 0.0592541343
C   C40       1.0  0.66582  0.00566  0.53363  1.0000 0.0592541343
C   C41       1.0  0.55974  0.18616  0.96032  1.0000 -0.1169523427
C   C42       1.0  0.44026  0.81384  0.96032  1.0000 -0.1116925238
C   C43       1.0  0.81384  0.55974  0.03968  1.0000 -0.1169523427
C   C44       1.0  0.18616  0.44026  0.03968  1.0000 -0.1169523427
C   C45       1.0  0.05974  0.31384  0.53968  1.0000 -0.1169523427
C   C46       1.0  0.94026  0.68616  0.53968  1.0000 -0.1169523427
C   C47       1.0  0.31384  0.94026  0.46032  1.0000 -0.1169523427
C   C48       1.0  0.68616  0.05974  0.46032  1.0000 -0.1169523427
C   C49       1.0  0.61848  0.24088  0.73874  1.0000 0.5767285594
C   C50       1.0  0.38152  0.75912  0.73874  1.0000 0.5767285594
C   C51       1.0  0.75912  0.61848  0.26126  1.0000 0.5767285594
C   C52       1.0  0.24088  0.38152  0.26126  1.0000 0.5767285594
C   C53       1.0  0.11848  0.25912  0.76126  1.0000 0.5767285594
C   C54       1.0  0.88152  0.74088  0.76126  1.0000 0.5767285594
C   C55       1.0  0.25912  0.88152  0.23874  1.0000 0.5767285594
C   C56       1.0  0.74088  0.11848  0.23874  1.0000 0.5767285594
C   C57       1.0  0.39235  0.23168  0.72466  1.0000 0.5710327172
C   C58       1.0  0.60765  0.76832  0.72466  1.0000 0.5710327172
C   C59       1.0  0.76832  0.39235  0.27534  1.0000 0.5710327172
C   C60       1.0  0.23168  0.60765  0.27534  1.0000 0.5710327172
C   C61       1.0  0.89235  0.26832  0.77534  1.0000 0.5710327172
C   C62       1.0  0.10765  0.73168  0.77534  1.0000 0.5710327172
C   C63       1.0  0.26832  0.10765  0.22466  1.0000 0.5710327172
C   C64       1.0  0.73168  0.89235  0.22466  1.0000 0.5710327172
C   C65       1.0  0.50725  0.12979  0.19557  1.0000 0.2631742016
C   C66       1.0  0.49275  0.87021  0.19557  1.0000 0.2631742016
C   C67       1.0  0.87021  0.50725  0.80443  1.0000 0.2631742016
C   C68       1.0  0.12979  0.49275  0.80443  1.0000 0.2631742016
C   C69       1.0  0.00725  0.37021  0.30443  1.0000 0.2631742016
C   C70       1.0  0.99275  0.62979  0.30443  1.0000 0.2631742016
C   C71       1.0  0.37021  0.99275  0.69557  1.0000 0.2631742016
C   C72       1.0  0.62979  0.00725  0.69557  1.0000 0.2631742016
C   C73       1.0  0.53406  0.17005  0.33170  1.0000 -0.4467912621
C   C74       1.0  0.46594  0.82995  0.33170  1.0000 -0.4467912621
C   C75       1.0  0.82995  0.53406  0.66830  1.0000 -0.4467912621
C   C76       1.0  0.17005  0.46594  0.66830  1.0000 -0.4467912621
C   C77       1.0  0.03406  0.32995  0.16830  1.0000 -0.4467912621
C   C78       1.0  0.96594  0.67005  0.16830  1.0000 -0.4467912621
C   C79       1.0  0.32995  0.96594  0.83170  1.0000 -0.4467912621
C   C80       1.0  0.67005  0.03406  0.83170  1.0000 -0.4467912621
C   C81       1.0  0.54755  0.07487  0.17420  1.0000 -0.4691709995
C   C82       1.0  0.45245  0.92513  0.17420  1.0000 -0.4691709995
C   C83       1.0  0.92513  0.54755  0.82580  1.0000 -0.4691709995
C   C84       1.0  0.07487  0.45245  0.82580  1.0000 -0.4691709995
C   C85       1.0  0.04755  0.42513  0.32580  1.0000 -0.4691709995
C   C86       1.0  0.95245  0.57487  0.32580  1.0000 -0.4691709995
C   C87       1.0  0.42513  0.95245  0.67420  1.0000 -0.4691709995
C   C88       1.0  0.57487  0.04755  0.67420  1.0000 -0.4691709995
C   C89       1.0  0.44486  0.10820  0.24840  1.0000 -0.4644872181
C   C90       1.0  0.55514  0.89180  0.24840  1.0000 -0.4644872181
C   C91       1.0  0.89180  0.44486  0.75160  1.0000 -0.4644872181
C   C92       1.0  0.10820  0.55514  0.75160  1.0000 -0.4644872181
C   C93       1.0  0.94486  0.39180  0.25160  1.0000 -0.4644872181
C   C94       1.0  0.05514  0.60820  0.25160  1.0000 -0.4644872181
C   C95       1.0  0.39180  0.05514  0.74840  1.0000 -0.4644872181
C   C96       1.0  0.60820  0.94486  0.74840  1.0000 -0.4644872181
O   O1        1.0  0.66645  0.23530  0.82550  1.0000 -0.5909092098
O   O2        1.0  0.33355  0.76470  0.82550  1.0000 -0.5909092098
O   O3        1.0  0.76470  0.66645  0.17450  1.0000 -0.5909092098
O   O4        1.0  0.23530  0.33355  0.17450  1.0000 -0.5909092098
O   O5        1.0  0.16645  0.26470  0.67450  1.0000 -0.5909092098
O   O6        1.0  0.83355  0.73530  0.67450  1.0000 -0.5909092098
O   O7        1.0  0.26470  0.83355  0.32550  1.0000 -0.5909092098
O   O8        1.0  0.73530  0.16645  0.32550  1.0000 -0.5909092098
O   O9        1.0  0.61778  0.26261  0.59560  1.0000 -0.5272282369
O   O10       1.0  0.38222  0.73739  0.59560  1.0000 -0.5272282369
O   O11       1.0  0.73739  0.61778  0.40440  1.0000 -0.5272282369
O   O12       1.0  0.26261  0.38222  0.40440  1.0000 -0.5272282369
O   O13       1.0  0.11778  0.23739  0.90440  1.0000 -0.5272282369
O   O14       1.0  0.88222  0.76261  0.90440  1.0000 -0.5272282369
O   O15       1.0  0.23739  0.88222  0.09560  1.0000 -0.5272282369
O   O16       1.0  0.76261  0.11778  0.09560  1.0000 -0.5272282369
O   O17       1.0  0.34441  0.22608  0.81120  1.0000 -0.5909092098
O   O18       1.0  0.65559  0.77392  0.81120  1.0000 -0.5909092098
O   O19       1.0  0.77392  0.34441  0.18880  1.0000 -0.5909092098
O   O20       1.0  0.22608  0.65559  0.18880  1.0000 -0.5909092098
O   O21       1.0  0.84441  0.27392  0.68880  1.0000 -0.5909092098
O   O22       1.0  0.15559  0.72608  0.68880  1.0000 -0.5909092098
O   O23       1.0  0.27392  0.15559  0.31120  1.0000 -0.5909092098
O   O24       1.0  0.72608  0.84441  0.31120  1.0000 -0.5909092098
O   O25       1.0  0.39330  0.24984  0.57862  1.0000 -0.5272282369
O   O26       1.0  0.60670  0.75016  0.57862  1.0000 -0.5272282369
O   O27       1.0  0.75016  0.39330  0.42138  1.0000 -0.5272282369
O   O28       1.0  0.24984  0.60670  0.42138  1.0000 -0.5272282369
O   O29       1.0  0.89330  0.25016  0.92138  1.0000 -0.5272282369
O   O30       1.0  0.10670  0.74984  0.92138  1.0000 -0.5272282369
O   O31       1.0  0.25016  0.10670  0.07862  1.0000 -0.5272282369
O   O32       1.0  0.74984  0.89330  0.07862  1.0000 -0.5272282369
O   O33       1.0  0.78302  0.22800  0.00779  1.0000 -0.79388135
O   O34       1.0  0.21698  0.77200  0.00779  1.0000 -0.79388135
O   O35       1.0  0.77200  0.78302  0.99221  1.0000 -0.79388135
O   O36       1.0  0.22800  0.21698  0.99221  1.0000 -0.79388135
O   O37       1.0  0.28302  0.27200  0.49221  1.0000 -0.79388135
O   O38       1.0  0.71698  0.72800  0.49221  1.0000 -0.79388135
O   O39       1.0  0.27200  0.71698  0.50779  1.0000 -0.79388135
O   O40       1.0  0.72800  0.28302  0.50779  1.0000 -0.79388135
