# DDEC6 charges by PACMAN v1.1 (https://github.com/mtap-research/PACMAN-charge/)
data_2004[Zn][pcu]3[ASR]1
_chemical_formula_sum              "Zn4 H44 C64 N8 O24"
_cell_length_a       11.442
_cell_length_b       15.807
_cell_length_c       13.373
_cell_angle_alpha    90
_cell_angle_beta     101.36
_cell_angle_gamma    90

_symmetry_space_group_name_H-M    "P 1"
_symmetry_Int_Tables_number       1

loop_
  _symmetry_equiv_pos_as_xyz
  'x, y, z'

loop_
  _atom_site_type_symbol
  _atom_site_label
  _atom_site_symmetry_multiplicity
  _atom_site_fract_x
  _atom_site_fract_y
  _atom_site_fract_z
  _atom_site_occupancy
  _atom_site_charge
Zn  Zn1       1.0  0.42889  0.57884  0.89163  1.0000 0.7931239134
Zn  Zn2       1.0  0.57111  0.07884  0.60837  1.0000 0.7931239134
Zn  Zn3       1.0  0.57111  0.42116  0.10837  1.0000 0.7931239134
Zn  Zn4       1.0  0.42889  0.92116  0.39163  1.0000 0.7931239134
H   H1        1.0  0.60980  0.88450  0.82650  1.0000 0.1489628139
H   H2        1.0  0.39020  0.38450  0.67350  1.0000 0.1489628139
H   H3        1.0  0.39020  0.11550  0.17350  1.0000 0.1489628139
H   H4        1.0  0.60980  0.61550  0.32650  1.0000 0.1489628139
H   H5        1.0  0.60040  0.78640  0.84120  1.0000 0.1426928244
H   H6        1.0  0.39960  0.28640  0.65880  1.0000 0.1426928244
H   H7        1.0  0.39960  0.21360  0.15880  1.0000 0.1426928244
H   H8        1.0  0.60040  0.71360  0.34120  1.0000 0.1426928244
H   H9        1.0  0.38410  0.76600  0.61790  1.0000 0.1426928244
H   H10       1.0  0.61590  0.26600  0.88210  1.0000 0.1426928244
H   H11       1.0  0.61590  0.23400  0.38210  1.0000 0.1426928244
H   H12       1.0  0.38410  0.73400  0.11790  1.0000 0.1426928244
H   H13       1.0  0.03900  0.68880  0.96360  1.0000 0.1554282731
H   H14       1.0  0.96100  0.18880  0.53640  1.0000 0.1554282731
H   H15       1.0  0.96100  0.31120  0.03640  1.0000 0.1554282731
H   H16       1.0  0.03900  0.81120  0.46360  1.0000 0.1554282731
H   H17       1.0  0.23780  0.68440  0.96050  1.0000 0.1300594541
H   H18       1.0  0.76220  0.18440  0.53950  1.0000 0.1300594541
H   H19       1.0  0.76220  0.31560  0.03950  1.0000 0.1300594541
H   H20       1.0  0.23780  0.81560  0.46050  1.0000 0.1300594541
H   H21       1.0  0.19980  0.47800  0.80600  1.0000 0.1300594541
H   H22       1.0  0.80020  0.97800  0.69400  1.0000 0.1300594541
H   H23       1.0  0.80020  0.52200  0.19400  1.0000 0.1300594541
H   H24       1.0  0.19980  0.02200  0.30600  1.0000 0.1300594541
H   H25       1.0  0.00120  0.47230  0.80840  1.0000 0.1489628139
H   H26       1.0  0.99880  0.97230  0.69160  1.0000 0.1489628139
H   H27       1.0  0.99880  0.52770  0.19160  1.0000 0.1489628139
H   H28       1.0  0.00120  0.02770  0.30840  1.0000 0.1489628139
H   H29       1.0  0.86640  0.66330  0.00220  1.0000 0.1489628139
H   H30       1.0  0.13360  0.16330  0.49780  1.0000 0.1489628139
H   H31       1.0  0.13360  0.33670  0.99780  1.0000 0.1489628139
H   H32       1.0  0.86640  0.83670  0.50220  1.0000 0.1489628139
H   H33       1.0  0.66680  0.66020  0.00230  1.0000 0.1300594541
H   H34       1.0  0.33320  0.16020  0.49770  1.0000 0.1300594541
H   H35       1.0  0.33320  0.33980  0.99770  1.0000 0.1300594541
H   H36       1.0  0.66680  0.83980  0.50230  1.0000 0.1300594541
H   H37       1.0  0.61400  0.50140  0.77630  1.0000 0.1300594541
H   H38       1.0  0.38600  0.00140  0.72370  1.0000 0.1300594541
H   H39       1.0  0.38600  0.49860  0.22370  1.0000 0.1300594541
H   H40       1.0  0.61400  0.99860  0.27630  1.0000 0.1300594541
H   H41       1.0  0.81140  0.49970  0.77230  1.0000 0.1489628139
H   H42       1.0  0.18860  0.99970  0.72770  1.0000 0.1489628139
H   H43       1.0  0.18860  0.50030  0.22770  1.0000 0.1489628139
H   H44       1.0  0.81140  0.00030  0.27230  1.0000 0.1489628139
C   C1        1.0  0.42480  0.69022  0.74620  1.0000 0.595832718
C   C2        1.0  0.57520  0.19022  0.75380  1.0000 0.595832718
C   C3        1.0  0.57520  0.30978  0.25380  1.0000 0.595832718
C   C4        1.0  0.42480  0.80978  0.24620  1.0000 0.595832718
C   C5        1.0  0.73740  0.81869  0.76840  1.0000 0.6072245365
C   C6        1.0  0.26260  0.31869  0.73160  1.0000 0.6072245365
C   C7        1.0  0.26260  0.18131  0.23160  1.0000 0.6072245365
C   C8        1.0  0.73740  0.68131  0.26840  1.0000 0.6072245365
C   C9        1.0  0.61370  0.83010  0.79377  1.0000 -0.3428702825
C   C10       1.0  0.38630  0.33010  0.70623  1.0000 -0.3428702825
C   C11       1.0  0.38630  0.16990  0.20623  1.0000 -0.3428702825
C   C12       1.0  0.61370  0.66990  0.29377  1.0000 -0.3428702825
C   C13       1.0  0.43760  0.76306  0.67989  1.0000 -0.2484697276
C   C14       1.0  0.56240  0.26306  0.82011  1.0000 -0.2484697276
C   C15       1.0  0.56240  0.23694  0.32011  1.0000 -0.2484697276
C   C16       1.0  0.43760  0.73694  0.17989  1.0000 -0.2484697276
C   C17       1.0  0.51865  0.82547  0.69989  1.0000 0.0549065819
C   C18       1.0  0.48135  0.32547  0.80011  1.0000 0.0549065819
C   C19       1.0  0.48135  0.17453  0.30011  1.0000 0.0549065819
C   C20       1.0  0.51865  0.67453  0.19989  1.0000 0.0549065819
C   C21       1.0  0.51746  0.89441  0.62279  1.0000 0.5693632489
C   C22       1.0  0.48254  0.39441  0.87721  1.0000 0.5693632489
C   C23       1.0  0.48254  0.10559  0.37721  1.0000 0.5693632489
C   C24       1.0  0.51746  0.60559  0.12279  1.0000 0.5693632489
C   C25       1.0  0.06940  0.64365  0.93220  1.0000 -0.1814856831
C   C26       1.0  0.93060  0.14365  0.56780  1.0000 -0.1814856831
C   C27       1.0  0.93060  0.35635  0.06780  1.0000 -0.1814856831
C   C28       1.0  0.06940  0.85635  0.43220  1.0000 -0.1814856831
C   C29       1.0  0.18960  0.64036  0.93000  1.0000 0.1090754739
C   C30       1.0  0.81040  0.14036  0.57000  1.0000 0.1090754739
C   C31       1.0  0.81040  0.35964  0.07000  1.0000 0.1090754739
C   C32       1.0  0.18960  0.85964  0.43000  1.0000 0.1090754739
C   C33       1.0  0.16724  0.51999  0.84080  1.0000 0.1090754739
C   C34       1.0  0.83276  0.01999  0.65920  1.0000 0.1090754739
C   C35       1.0  0.83276  0.48001  0.15920  1.0000 0.1090754739
C   C36       1.0  0.16724  0.98001  0.34080  1.0000 0.1090754739
C   C37       1.0  0.04705  0.51685  0.84040  1.0000 -0.1814856831
C   C38       1.0  0.95295  0.01685  0.65960  1.0000 -0.1814856831
C   C39       1.0  0.95295  0.48315  0.15960  1.0000 -0.1814856831
C   C40       1.0  0.04705  0.98315  0.34040  1.0000 -0.1814856831
C   C41       1.0  0.99471  0.58000  0.88777  1.0000 0.1090754739
C   C42       1.0  0.00529  0.08000  0.61223  1.0000 0.1090754739
C   C43       1.0  0.00529  0.42000  0.11223  1.0000 0.1090754739
C   C44       1.0  0.99471  0.92000  0.38777  1.0000 0.1090754739
C   C45       1.0  0.86503  0.58066  0.88894  1.0000 0.1090754739
C   C46       1.0  0.13497  0.08066  0.61106  1.0000 0.1090754739
C   C47       1.0  0.13497  0.41934  0.11106  1.0000 0.1090754739
C   C48       1.0  0.86503  0.91934  0.38894  1.0000 0.1090754739
C   C49       1.0  0.81687  0.62887  0.95578  1.0000 -0.1507128352
C   C50       1.0  0.18313  0.12887  0.54422  1.0000 -0.1507128352
C   C51       1.0  0.18313  0.37113  0.04422  1.0000 -0.1507128352
C   C52       1.0  0.81687  0.87113  0.45578  1.0000 -0.1507128352
C   C53       1.0  0.69638  0.62717  0.95536  1.0000 0.1013515791
C   C54       1.0  0.30362  0.12717  0.54464  1.0000 0.1013515791
C   C55       1.0  0.30362  0.37283  0.04464  1.0000 0.1013515791
C   C56       1.0  0.69638  0.87283  0.45536  1.0000 0.1013515791
C   C57       1.0  0.66541  0.53411  0.82337  1.0000 0.1090754739
C   C58       1.0  0.33459  0.03411  0.67663  1.0000 0.1090754739
C   C59       1.0  0.33459  0.46589  0.17663  1.0000 0.1090754739
C   C60       1.0  0.66541  0.96589  0.32337  1.0000 0.1090754739
C   C61       1.0  0.78438  0.53286  0.82052  1.0000 -0.1814856831
C   C62       1.0  0.21562  0.03286  0.67948  1.0000 -0.1814856831
C   C63       1.0  0.21562  0.46714  0.17948  1.0000 -0.1814856831
C   C64       1.0  0.78438  0.96714  0.32052  1.0000 -0.1814856831
N   N1        1.0  0.61990  0.57928  0.88936  1.0000 -0.2034947449
N   N2        1.0  0.38010  0.07928  0.61064  1.0000 -0.2034947449
N   N3        1.0  0.38010  0.42072  0.11064  1.0000 -0.2034947449
N   N4        1.0  0.61990  0.92072  0.38936  1.0000 -0.2034947449
N   N5        1.0  0.23948  0.57974  0.88807  1.0000 -0.1854671711
N   N6        1.0  0.76052  0.07974  0.61193  1.0000 -0.1814856831
N   N7        1.0  0.76052  0.42026  0.11193  1.0000 -0.1814856831
N   N8        1.0  0.23948  0.92026  0.38807  1.0000 -0.1814856831
O   O1        1.0  0.82474  0.84373  0.83876  1.0000 -0.5554418736
O   O2        1.0  0.17526  0.34373  0.66124  1.0000 -0.5554418736
O   O3        1.0  0.17526  0.15627  0.16124  1.0000 -0.5554418736
O   O4        1.0  0.82474  0.65627  0.33876  1.0000 -0.5554418736
O   O5        1.0  0.75163  0.78926  0.69085  1.0000 -0.5071969652
O   O6        1.0  0.24837  0.28926  0.80915  1.0000 -0.5071969652
O   O7        1.0  0.24837  0.21074  0.30915  1.0000 -0.5071969652
O   O8        1.0  0.75163  0.71074  0.19085  1.0000 -0.5071969652
O   O9        1.0  0.41652  0.61810  0.71169  1.0000 -0.5071969652
O   O10       1.0  0.58348  0.11810  0.78831  1.0000 -0.5071969652
O   O11       1.0  0.58348  0.38190  0.28831  1.0000 -0.5071969652
O   O12       1.0  0.41652  0.88190  0.21169  1.0000 -0.5071969652
O   O13       1.0  0.42255  0.70521  0.83870  1.0000 -0.5214998597
O   O14       1.0  0.57745  0.20521  0.66130  1.0000 -0.5214998597
O   O15       1.0  0.57745  0.29479  0.16130  1.0000 -0.5214998597
O   O16       1.0  0.42255  0.79479  0.33870  1.0000 -0.5214998597
O   O17       1.0  0.58283  0.95734  0.65173  1.0000 -0.5214998597
O   O18       1.0  0.41717  0.45734  0.84827  1.0000 -0.5214998597
O   O19       1.0  0.41717  0.04266  0.34827  1.0000 -0.5214998597
O   O20       1.0  0.58283  0.54266  0.15173  1.0000 -0.5214998597
O   O21       1.0  0.45077  0.88545  0.53731  1.0000 -0.5387617224
O   O22       1.0  0.54923  0.38545  0.96269  1.0000 -0.5387617224
O   O23       1.0  0.54923  0.11455  0.46269  1.0000 -0.5387617224
O   O24       1.0  0.45077  0.61455  0.03731  1.0000 -0.5387617224
