# DDEC6 charges by PACMAN v1.1 (https://github.com/mtap-research/PACMAN-charge/)
data_2007[CuGd][stp]3[ASR]1
_chemical_formula_sum              "Gd4 Cu6 H60 C48 N12 O48"
_cell_length_a       13.343
_cell_length_b       13.343
_cell_length_c       14.515
_cell_angle_alpha    90
_cell_angle_beta     90
_cell_angle_gamma    120

_symmetry_space_group_name_H-M    "P 1"
_symmetry_Int_Tables_number       1

loop_
  _symmetry_equiv_pos_as_xyz
  'x, y, z'

loop_
  _atom_site_type_symbol
  _atom_site_label
  _atom_site_symmetry_multiplicity
  _atom_site_fract_x
  _atom_site_fract_y
  _atom_site_fract_z
  _atom_site_occupancy
  _atom_site_charge
Gd  Gd1       1.0  0.33333  0.66667  0.33200  1.0000 2.0161856147
Gd  Gd2       1.0  0.66667  0.33333  0.16800  1.0000 2.0161856147
Gd  Gd3       1.0  0.66667  0.33333  0.66800  1.0000 2.0161856147
Gd  Gd4       1.0  0.33333  0.66667  0.83200  1.0000 2.0161856147
Cu  Cu1       1.0  0.50000  0.00000  0.00000  1.0000 0.7454315952
Cu  Cu2       1.0  0.00000  0.50000  0.00000  1.0000 0.7454315952
Cu  Cu3       1.0  0.00000  0.50000  0.50000  1.0000 0.7454315952
Cu  Cu4       1.0  0.50000  0.50000  0.00000  1.0000 0.7454315952
Cu  Cu5       1.0  0.50000  0.50000  0.50000  1.0000 0.7454315952
Cu  Cu6       1.0  0.50000  0.00000  0.50000  1.0000 0.7454315952
H   H1        1.0  0.67400  0.02410  0.07790  1.0000 0.2574966731
H   H2        1.0  0.97590  0.64990  0.07790  1.0000 0.2574966731
H   H3        1.0  0.02410  0.67400  0.42210  1.0000 0.2574966731
H   H4        1.0  0.35010  0.32600  0.07790  1.0000 0.2574966731
H   H5        1.0  0.32600  0.35010  0.42210  1.0000 0.2574966731
H   H6        1.0  0.64990  0.97590  0.42210  1.0000 0.2574966731
H   H7        1.0  0.32600  0.97590  0.92210  1.0000 0.2574966731
H   H8        1.0  0.02410  0.35010  0.92210  1.0000 0.2574966731
H   H9        1.0  0.97590  0.32600  0.57790  1.0000 0.2574966731
H   H10       1.0  0.64990  0.67400  0.92210  1.0000 0.2574966731
H   H11       1.0  0.67400  0.64990  0.57790  1.0000 0.2574966731
H   H12       1.0  0.35010  0.02410  0.57790  1.0000 0.2574966731
H   H13       1.0  0.54220  0.80890  0.12910  1.0000 0.1575737627
H   H14       1.0  0.19110  0.73330  0.12910  1.0000 0.1575737627
H   H15       1.0  0.80890  0.54220  0.37090  1.0000 0.1575737627
H   H16       1.0  0.26670  0.45780  0.12910  1.0000 0.1575737627
H   H17       1.0  0.45780  0.26670  0.37090  1.0000 0.1575737627
H   H18       1.0  0.73330  0.19110  0.37090  1.0000 0.1575737627
H   H19       1.0  0.45780  0.19110  0.87090  1.0000 0.1575737627
H   H20       1.0  0.80890  0.26670  0.87090  1.0000 0.1575737627
H   H21       1.0  0.19110  0.45780  0.62910  1.0000 0.1575737627
H   H22       1.0  0.73330  0.54220  0.87090  1.0000 0.1575737627
H   H23       1.0  0.54220  0.73330  0.62910  1.0000 0.1575737627
H   H24       1.0  0.26670  0.80890  0.62910  1.0000 0.1575737627
H   H25       1.0  0.60260  0.91860  0.19250  1.0000 0.1543455603
H   H26       1.0  0.08140  0.68400  0.19250  1.0000 0.1543455603
H   H27       1.0  0.91860  0.60260  0.30750  1.0000 0.1543455603
H   H28       1.0  0.31600  0.39740  0.19250  1.0000 0.1543455603
H   H29       1.0  0.39740  0.31600  0.30750  1.0000 0.1543455603
H   H30       1.0  0.68400  0.08140  0.30750  1.0000 0.1543455603
H   H31       1.0  0.39740  0.08140  0.80750  1.0000 0.1543455603
H   H32       1.0  0.91860  0.31600  0.80750  1.0000 0.1543455603
H   H33       1.0  0.08140  0.39740  0.69250  1.0000 0.1543455603
H   H34       1.0  0.68400  0.60260  0.80750  1.0000 0.1543455603
H   H35       1.0  0.60260  0.68400  0.69250  1.0000 0.1543455603
H   H36       1.0  0.31600  0.91860  0.69250  1.0000 0.1543455603
H   H37       1.0  0.70730  0.96120  0.95010  1.0000 0.1420867326
H   H38       1.0  0.03880  0.74610  0.95010  1.0000 0.1420867326
H   H39       1.0  0.96120  0.70730  0.54990  1.0000 0.1420867326
H   H40       1.0  0.25390  0.29270  0.95010  1.0000 0.1420867326
H   H41       1.0  0.29270  0.25390  0.54990  1.0000 0.1420867326
H   H42       1.0  0.74610  0.03880  0.54990  1.0000 0.1420867326
H   H43       1.0  0.29270  0.03880  0.04990  1.0000 0.1420867326
H   H44       1.0  0.96120  0.25390  0.04990  1.0000 0.1420867326
H   H45       1.0  0.03880  0.29270  0.45010  1.0000 0.1420867326
H   H46       1.0  0.74610  0.70730  0.04990  1.0000 0.1420867326
H   H47       1.0  0.70730  0.74610  0.45010  1.0000 0.1420867326
H   H48       1.0  0.25390  0.96120  0.45010  1.0000 0.1420867326
H   H49       1.0  0.68250  0.86210  0.02060  1.0000 0.1308020385
H   H50       1.0  0.13790  0.82040  0.02060  1.0000 0.1308020385
H   H51       1.0  0.86210  0.68250  0.47940  1.0000 0.1308020385
H   H52       1.0  0.17960  0.31750  0.02060  1.0000 0.1308020385
H   H53       1.0  0.31750  0.17960  0.47940  1.0000 0.1308020385
H   H54       1.0  0.82040  0.13790  0.47940  1.0000 0.1308020385
H   H55       1.0  0.31750  0.13790  0.97940  1.0000 0.1308020385
H   H56       1.0  0.86210  0.17960  0.97940  1.0000 0.1308020385
H   H57       1.0  0.13790  0.31750  0.52060  1.0000 0.1308020385
H   H58       1.0  0.82040  0.68250  0.97940  1.0000 0.1308020385
H   H59       1.0  0.68250  0.82040  0.52060  1.0000 0.1308020385
H   H60       1.0  0.17960  0.86210  0.52060  1.0000 0.1308020385
C   C1        1.0  0.43800  0.87460  0.15920  1.0000 0.6545255514
C   C2        1.0  0.12540  0.56340  0.15920  1.0000 0.6545255514
C   C3        1.0  0.87460  0.43800  0.34080  1.0000 0.6545255514
C   C4        1.0  0.43660  0.56200  0.15920  1.0000 0.6545255514
C   C5        1.0  0.56200  0.43660  0.34080  1.0000 0.6545255514
C   C6        1.0  0.56340  0.12540  0.34080  1.0000 0.6545255514
C   C7        1.0  0.56200  0.12540  0.84080  1.0000 0.6545255514
C   C8        1.0  0.87460  0.43660  0.84080  1.0000 0.6545255514
C   C9        1.0  0.12540  0.56200  0.65920  1.0000 0.6545255514
C   C10       1.0  0.56340  0.43800  0.84080  1.0000 0.6545255514
C   C11       1.0  0.43800  0.56340  0.65920  1.0000 0.6545255514
C   C12       1.0  0.43660  0.87460  0.65920  1.0000 0.6545255514
C   C13       1.0  0.55290  0.88560  0.13920  1.0000 -0.2656379683
C   C14       1.0  0.11440  0.66730  0.13920  1.0000 -0.2656379683
C   C15       1.0  0.88560  0.55290  0.36080  1.0000 -0.2656379683
C   C16       1.0  0.33270  0.44710  0.13920  1.0000 -0.2656379683
C   C17       1.0  0.44710  0.33270  0.36080  1.0000 -0.2656379683
C   C18       1.0  0.66730  0.11440  0.36080  1.0000 -0.2656379683
C   C19       1.0  0.44710  0.11440  0.86080  1.0000 -0.2656379683
C   C20       1.0  0.88560  0.33270  0.86080  1.0000 -0.2656379683
C   C21       1.0  0.11440  0.44710  0.63920  1.0000 -0.2656379683
C   C22       1.0  0.66730  0.55290  0.86080  1.0000 -0.2656379683
C   C23       1.0  0.55290  0.66730  0.63920  1.0000 -0.2656379683
C   C24       1.0  0.33270  0.88560  0.63920  1.0000 -0.2656379683
C   C25       1.0  0.64860  0.90240  0.98940  1.0000 -0.2388271658
C   C26       1.0  0.09760  0.74620  0.98940  1.0000 -0.2388271658
C   C27       1.0  0.90240  0.64860  0.51060  1.0000 -0.2388271658
C   C28       1.0  0.25380  0.35140  0.98940  1.0000 -0.2388271658
C   C29       1.0  0.35140  0.25380  0.51060  1.0000 -0.2388271658
C   C30       1.0  0.74620  0.09760  0.51060  1.0000 -0.2388271658
C   C31       1.0  0.35140  0.09760  0.01060  1.0000 -0.2388271658
C   C32       1.0  0.90240  0.25380  0.01060  1.0000 -0.2388271658
C   C33       1.0  0.09760  0.35140  0.48940  1.0000 -0.2388271658
C   C34       1.0  0.74620  0.64860  0.01060  1.0000 -0.2388271658
C   C35       1.0  0.64860  0.74620  0.48940  1.0000 -0.2388271658
C   C36       1.0  0.25380  0.90240  0.48940  1.0000 -0.2388271658
C   C37       1.0  0.54710  0.81720  0.93100  1.0000 0.6189492079
C   C38       1.0  0.18280  0.72990  0.93100  1.0000 0.6189492079
C   C39       1.0  0.81720  0.54710  0.56900  1.0000 0.6189492079
C   C40       1.0  0.27010  0.45290  0.93100  1.0000 0.6189492079
C   C41       1.0  0.45290  0.27010  0.56900  1.0000 0.6189492079
C   C42       1.0  0.72990  0.18280  0.56900  1.0000 0.6189492079
C   C43       1.0  0.45290  0.18280  0.06900  1.0000 0.6189492079
C   C44       1.0  0.81720  0.27010  0.06900  1.0000 0.6189492079
C   C45       1.0  0.18280  0.45290  0.43100  1.0000 0.6189492079
C   C46       1.0  0.72990  0.54710  0.06900  1.0000 0.6189492079
C   C47       1.0  0.54710  0.72990  0.43100  1.0000 0.6189492079
C   C48       1.0  0.27010  0.81720  0.43100  1.0000 0.6189492079
N   N1        1.0  0.61080  0.95800  0.05820  1.0000 -0.2501426307
N   N2        1.0  0.04200  0.65280  0.05820  1.0000 -0.2501426307
N   N3        1.0  0.95800  0.61080  0.44180  1.0000 -0.2501426307
N   N4        1.0  0.34720  0.38920  0.05820  1.0000 -0.2501426307
N   N5        1.0  0.38920  0.34720  0.44180  1.0000 -0.2501426307
N   N6        1.0  0.65280  0.04200  0.44180  1.0000 -0.2501426307
N   N7        1.0  0.38920  0.04200  0.94180  1.0000 -0.2501426307
N   N8        1.0  0.95800  0.34720  0.94180  1.0000 -0.2501426307
N   N9        1.0  0.04200  0.38920  0.55820  1.0000 -0.2501426307
N   N10       1.0  0.65280  0.61080  0.94180  1.0000 -0.2501426307
N   N11       1.0  0.61080  0.65280  0.55820  1.0000 -0.2501426307
N   N12       1.0  0.34720  0.95800  0.55820  1.0000 -0.2501426307
O   O1        1.0  0.40120  0.92530  0.10760  1.0000 -0.5117912509
O   O2        1.0  0.07470  0.47590  0.10760  1.0000 -0.5117912509
O   O3        1.0  0.92530  0.40120  0.39240  1.0000 -0.5117912509
O   O4        1.0  0.52410  0.59880  0.10760  1.0000 -0.5117912509
O   O5        1.0  0.59880  0.52410  0.39240  1.0000 -0.5117912509
O   O6        1.0  0.47590  0.07470  0.39240  1.0000 -0.5117912509
O   O7        1.0  0.59880  0.07470  0.89240  1.0000 -0.5117912509
O   O8        1.0  0.92530  0.52410  0.89240  1.0000 -0.5117912509
O   O9        1.0  0.07470  0.59880  0.60760  1.0000 -0.5117912509
O   O10       1.0  0.47590  0.40120  0.89240  1.0000 -0.5117912509
O   O11       1.0  0.40120  0.47590  0.60760  1.0000 -0.5117912509
O   O12       1.0  0.52410  0.92530  0.60760  1.0000 -0.5117912509
O   O13       1.0  0.38210  0.81730  0.22830  1.0000 -0.6496685588
O   O14       1.0  0.18270  0.56480  0.22830  1.0000 -0.6496685588
O   O15       1.0  0.81730  0.38210  0.27170  1.0000 -0.6496685588
O   O16       1.0  0.43520  0.61790  0.22830  1.0000 -0.6496685588
O   O17       1.0  0.61790  0.43520  0.27170  1.0000 -0.6496685588
O   O18       1.0  0.56480  0.18270  0.27170  1.0000 -0.6496685588
O   O19       1.0  0.61790  0.18270  0.77170  1.0000 -0.6496685588
O   O20       1.0  0.81730  0.43520  0.77170  1.0000 -0.6496685588
O   O21       1.0  0.18270  0.61790  0.72830  1.0000 -0.6496685588
O   O22       1.0  0.56480  0.38210  0.77170  1.0000 -0.6496685588
O   O23       1.0  0.38210  0.56480  0.72830  1.0000 -0.6496685588
O   O24       1.0  0.43520  0.81730  0.72830  1.0000 -0.6496685588
O   O25       1.0  0.45070  0.81280  0.94160  1.0000 -0.6496685588
O   O26       1.0  0.18720  0.63790  0.94160  1.0000 -0.6496685588
O   O27       1.0  0.81280  0.45070  0.55840  1.0000 -0.6496685588
O   O28       1.0  0.36210  0.54930  0.94160  1.0000 -0.6496685588
O   O29       1.0  0.54930  0.36210  0.55840  1.0000 -0.6496685588
O   O30       1.0  0.63790  0.18720  0.55840  1.0000 -0.6496685588
O   O31       1.0  0.54930  0.18720  0.05840  1.0000 -0.6496685588
O   O32       1.0  0.81280  0.36210  0.05840  1.0000 -0.6496685588
O   O33       1.0  0.18720  0.54930  0.44160  1.0000 -0.6496685588
O   O34       1.0  0.63790  0.45070  0.05840  1.0000 -0.6496685588
O   O35       1.0  0.45070  0.63790  0.44160  1.0000 -0.6496685588
O   O36       1.0  0.36210  0.81280  0.44160  1.0000 -0.6496685588
O   O37       1.0  0.56090  0.75610  0.87310  1.0000 -0.5948210625
O   O38       1.0  0.24390  0.80480  0.87310  1.0000 -0.5948210625
O   O39       1.0  0.75610  0.56090  0.62690  1.0000 -0.5948210625
O   O40       1.0  0.19520  0.43910  0.87310  1.0000 -0.5948210625
O   O41       1.0  0.43910  0.19520  0.62690  1.0000 -0.5948210625
O   O42       1.0  0.80480  0.24390  0.62690  1.0000 -0.5948210625
O   O43       1.0  0.43910  0.24390  0.12690  1.0000 -0.5948210625
O   O44       1.0  0.75610  0.19520  0.12690  1.0000 -0.5948210625
O   O45       1.0  0.24390  0.43910  0.37310  1.0000 -0.5948210625
O   O46       1.0  0.80480  0.56090  0.12690  1.0000 -0.5948210625
O   O47       1.0  0.56090  0.80480  0.37310  1.0000 -0.5948210625
O   O48       1.0  0.19520  0.75610  0.37310  1.0000 -0.5948210625
