# DDEC6 charges by PACMAN v1.1 (https://github.com/mtap-research/PACMAN-charge/)
data_2010[Cd][nuc]3[ASR]3
_chemical_formula_sum              "Cd4 H144 C192 N48"
_cell_length_a       15.8731
_cell_length_b       15.8731
_cell_length_c       21.776
_cell_angle_alpha    90
_cell_angle_beta     90
_cell_angle_gamma    90

_symmetry_space_group_name_H-M    "P 1"
_symmetry_Int_Tables_number       1

loop_
  _symmetry_equiv_pos_as_xyz
  'x, y, z'

loop_
  _atom_site_type_symbol
  _atom_site_label
  _atom_site_symmetry_multiplicity
  _atom_site_fract_x
  _atom_site_fract_y
  _atom_site_fract_z
  _atom_site_occupancy
  _atom_site_charge
Cd  Cd1       1.0  0.44214  0.55786  0.75000  1.0000 0.6436344004
Cd  Cd2       1.0  0.55786  0.44214  0.25000  1.0000 0.6436344004
Cd  Cd3       1.0  0.94214  0.94214  0.50000  1.0000 0.6436344004
Cd  Cd4       1.0  0.05786  0.05786  0.00000  1.0000 0.6436344004
H   H1        1.0  0.96350  0.88810  0.65040  1.0000 0.1006067491
H   H2        1.0  0.03650  0.11190  0.15040  1.0000 0.1006067491
H   H3        1.0  0.61190  0.46350  0.40040  1.0000 0.1006067491
H   H4        1.0  0.38810  0.53650  0.90040  1.0000 0.1006067491
H   H5        1.0  0.53650  0.38810  0.09960  1.0000 0.1006067491
H   H6        1.0  0.46350  0.61190  0.59960  1.0000 0.1006067491
H   H7        1.0  0.88810  0.96350  0.34960  1.0000 0.1006067491
H   H8        1.0  0.11190  0.03650  0.84960  1.0000 0.1006067491
H   H9        1.0  0.91610  0.78500  0.71520  1.0000 0.1292244263
H   H10       1.0  0.08390  0.21500  0.21520  1.0000 0.1292244263
H   H11       1.0  0.71500  0.41610  0.46520  1.0000 0.1292244263
H   H12       1.0  0.28500  0.58390  0.96520  1.0000 0.1292244263
H   H13       1.0  0.58390  0.28500  0.03480  1.0000 0.1292244263
H   H14       1.0  0.41610  0.71500  0.53480  1.0000 0.1292244263
H   H15       1.0  0.78500  0.91610  0.28480  1.0000 0.1292244263
H   H16       1.0  0.21500  0.08390  0.78480  1.0000 0.1292244263
H   H17       1.0  0.71540  0.75690  0.60280  1.0000 0.1292244263
H   H18       1.0  0.28460  0.24310  0.10280  1.0000 0.1292244263
H   H19       1.0  0.74310  0.21540  0.35280  1.0000 0.1292244263
H   H20       1.0  0.25690  0.78460  0.85280  1.0000 0.1292244263
H   H21       1.0  0.78460  0.25690  0.14720  1.0000 0.1292244263
H   H22       1.0  0.21540  0.74310  0.64720  1.0000 0.1292244263
H   H23       1.0  0.75690  0.71540  0.39720  1.0000 0.1292244263
H   H24       1.0  0.24310  0.28460  0.89720  1.0000 0.1292244263
H   H25       1.0  0.77260  0.85910  0.54010  1.0000 0.0903219722
H   H26       1.0  0.22740  0.14090  0.04010  1.0000 0.0903219722
H   H27       1.0  0.64090  0.27260  0.29010  1.0000 0.0903219722
H   H28       1.0  0.35910  0.72740  0.79010  1.0000 0.0903219722
H   H29       1.0  0.72740  0.35910  0.20990  1.0000 0.0903219722
H   H30       1.0  0.27260  0.64090  0.70990  1.0000 0.0903219722
H   H31       1.0  0.85910  0.77260  0.45990  1.0000 0.0903219722
H   H32       1.0  0.14090  0.22740  0.95990  1.0000 0.0903219722
H   H33       1.0  0.84740  0.70380  0.78000  1.0000 0.1006067491
H   H34       1.0  0.15260  0.29620  0.28000  1.0000 0.1006067491
H   H35       1.0  0.79620  0.34740  0.53000  1.0000 0.1006067491
H   H36       1.0  0.20380  0.65260  0.03000  1.0000 0.1006067491
H   H37       1.0  0.65260  0.20380  0.97000  1.0000 0.1006067491
H   H38       1.0  0.34740  0.79620  0.47000  1.0000 0.1006067491
H   H39       1.0  0.70380  0.84740  0.22000  1.0000 0.1006067491
H   H40       1.0  0.29620  0.15260  0.72000  1.0000 0.1006067491
H   H41       1.0  0.79550  0.59020  0.83600  1.0000 0.1006067491
H   H42       1.0  0.20450  0.40980  0.33600  1.0000 0.1006067491
H   H43       1.0  0.90980  0.29550  0.58600  1.0000 0.1006067491
H   H44       1.0  0.09020  0.70450  0.08600  1.0000 0.1006067491
H   H45       1.0  0.70450  0.09020  0.91400  1.0000 0.1006067491
H   H46       1.0  0.29550  0.90980  0.41400  1.0000 0.1006067491
H   H47       1.0  0.59020  0.79550  0.16400  1.0000 0.1006067491
H   H48       1.0  0.40980  0.20450  0.66400  1.0000 0.1006067491
H   H49       1.0  0.69700  0.49640  0.79160  1.0000 0.1095434771
H   H50       1.0  0.30300  0.50360  0.29160  1.0000 0.1095434771
H   H51       1.0  0.00360  0.19700  0.54160  1.0000 0.1095434771
H   H52       1.0  0.99640  0.80300  0.04160  1.0000 0.1095434771
H   H53       1.0  0.80300  0.99640  0.95840  1.0000 0.1095434771
H   H54       1.0  0.19700  0.00360  0.45840  1.0000 0.1095434771
H   H55       1.0  0.49640  0.69700  0.20840  1.0000 0.1095434771
H   H56       1.0  0.50360  0.30300  0.70840  1.0000 0.1095434771
H   H57       1.0  0.70240  0.63360  0.63560  1.0000 0.1095434771
H   H58       1.0  0.29760  0.36640  0.13560  1.0000 0.1095434771
H   H59       1.0  0.86640  0.20240  0.38560  1.0000 0.1095434771
H   H60       1.0  0.13360  0.79760  0.88560  1.0000 0.1095434771
H   H61       1.0  0.79760  0.13360  0.11440  1.0000 0.1095434771
H   H62       1.0  0.20240  0.86640  0.61440  1.0000 0.1095434771
H   H63       1.0  0.63360  0.70240  0.36440  1.0000 0.1095434771
H   H64       1.0  0.36640  0.29760  0.86440  1.0000 0.1095434771
H   H65       1.0  0.45520  0.38050  0.53880  1.0000 0.1095434771
H   H66       1.0  0.54480  0.61950  0.03880  1.0000 0.1095434771
H   H67       1.0  0.11950  0.95520  0.28880  1.0000 0.1095434771
H   H68       1.0  0.88050  0.04480  0.78880  1.0000 0.1095434771
H   H69       1.0  0.04480  0.88050  0.21120  1.0000 0.1095434771
H   H70       1.0  0.95520  0.11950  0.71120  1.0000 0.1095434771
H   H71       1.0  0.38050  0.45520  0.46120  1.0000 0.1095434771
H   H72       1.0  0.61950  0.54480  0.96120  1.0000 0.1095434771
H   H73       1.0  0.43620  0.27080  0.47080  1.0000 0.1095434771
H   H74       1.0  0.56380  0.72920  0.97080  1.0000 0.1095434771
H   H75       1.0  0.22920  0.93620  0.22080  1.0000 0.1095434771
H   H76       1.0  0.77080  0.06380  0.72080  1.0000 0.1095434771
H   H77       1.0  0.06380  0.77080  0.27920  1.0000 0.1095434771
H   H78       1.0  0.93620  0.22920  0.77920  1.0000 0.1095434771
H   H79       1.0  0.27080  0.43620  0.52920  1.0000 0.1095434771
H   H80       1.0  0.72920  0.56380  0.02920  1.0000 0.1095434771
H   H81       1.0  0.53520  0.16670  0.46090  1.0000 0.1095434771
H   H82       1.0  0.46480  0.83330  0.96090  1.0000 0.1095434771
H   H83       1.0  0.33333  0.03520  0.21090  1.0000 0.1095434771
H   H84       1.0  0.66667  0.96480  0.71090  1.0000 0.1095434771
H   H85       1.0  0.96480  0.66667  0.28910  1.0000 0.1095434771
H   H86       1.0  0.03520  0.33333  0.78910  1.0000 0.1095434771
H   H87       1.0  0.16670  0.53520  0.53910  1.0000 0.1095434771
H   H88       1.0  0.83330  0.46480  0.03910  1.0000 0.1095434771
H   H89       1.0  0.67500  0.27660  0.59570  1.0000 0.1006067491
H   H90       1.0  0.32500  0.72340  0.09570  1.0000 0.1006067491
H   H91       1.0  0.22340  0.17500  0.34570  1.0000 0.1006067491
H   H92       1.0  0.77660  0.82500  0.84570  1.0000 0.1006067491
H   H93       1.0  0.82500  0.77660  0.15430  1.0000 0.1006067491
H   H94       1.0  0.17500  0.22340  0.65430  1.0000 0.1006067491
H   H95       1.0  0.27660  0.67500  0.40430  1.0000 0.1006067491
H   H96       1.0  0.72340  0.32500  0.90430  1.0000 0.1006067491
H   H97       1.0  0.65560  0.10740  0.43480  1.0000 0.1216597959
H   H98       1.0  0.34440  0.89260  0.93480  1.0000 0.1216597959
H   H99       1.0  0.39260  0.15560  0.18480  1.0000 0.1216597959
H   H100      1.0  0.60740  0.84440  0.68480  1.0000 0.1216597959
H   H101      1.0  0.84440  0.60740  0.31520  1.0000 0.1216597959
H   H102      1.0  0.15560  0.39260  0.81520  1.0000 0.1216597959
H   H103      1.0  0.10740  0.65560  0.56520  1.0000 0.1216597959
H   H104      1.0  0.89260  0.34440  0.06520  1.0000 0.1216597959
H   H105      1.0  0.76620  0.01090  0.42560  1.0000 0.0903219722
H   H106      1.0  0.23380  0.98910  0.92560  1.0000 0.0903219722
H   H107      1.0  0.48910  0.26620  0.17560  1.0000 0.0903219722
H   H108      1.0  0.51090  0.73380  0.67560  1.0000 0.0903219722
H   H109      1.0  0.73380  0.51090  0.32440  1.0000 0.0903219722
H   H110      1.0  0.26620  0.48910  0.82440  1.0000 0.0903219722
H   H111      1.0  0.01090  0.76620  0.57440  1.0000 0.0903219722
H   H112      1.0  0.98910  0.23380  0.07440  1.0000 0.0903219722
H   H113      1.0  0.83960  0.05700  0.59400  1.0000 0.1006067491
H   H114      1.0  0.16040  0.94300  0.09400  1.0000 0.1006067491
H   H115      1.0  0.44300  0.33960  0.34400  1.0000 0.1006067491
H   H116      1.0  0.55700  0.66040  0.84400  1.0000 0.1006067491
H   H117      1.0  0.66040  0.55700  0.15600  1.0000 0.1006067491
H   H118      1.0  0.33960  0.44300  0.65600  1.0000 0.1006067491
H   H119      1.0  0.05700  0.83960  0.40600  1.0000 0.1006067491
H   H120      1.0  0.94300  0.16040  0.90600  1.0000 0.1006067491
H   H121      1.0  0.73360  0.15200  0.60910  1.0000 0.1216597959
H   H122      1.0  0.26640  0.84800  0.10910  1.0000 0.1216597959
H   H123      1.0  0.34800  0.23360  0.35910  1.0000 0.1216597959
H   H124      1.0  0.65200  0.76640  0.85910  1.0000 0.1216597959
H   H125      1.0  0.76640  0.65200  0.14090  1.0000 0.1216597959
H   H126      1.0  0.23360  0.34800  0.64090  1.0000 0.1216597959
H   H127      1.0  0.15200  0.73360  0.39090  1.0000 0.1216597959
H   H128      1.0  0.84800  0.26640  0.89090  1.0000 0.1216597959
H   H129      1.0  0.75870  0.47300  0.60900  1.0000 0.2583532921
H   H130      1.0  0.24130  0.52700  0.10900  1.0000 0.2583532921
H   H131      1.0  0.02700  0.25870  0.35900  1.0000 0.2583532921
H   H132      1.0  0.97300  0.74130  0.85900  1.0000 0.2583532921
H   H133      1.0  0.74130  0.97300  0.14100  1.0000 0.2583532921
H   H134      1.0  0.25870  0.02700  0.64100  1.0000 0.2583532921
H   H135      1.0  0.47300  0.75870  0.39100  1.0000 0.2583532921
H   H136      1.0  0.52700  0.24130  0.89100  1.0000 0.2583532921
H   H137      1.0  0.75950  0.39610  0.64780  1.0000 0.2485718793
H   H138      1.0  0.24050  0.60390  0.14780  1.0000 0.2485718793
H   H139      1.0  0.10390  0.25950  0.39780  1.0000 0.2485718793
H   H140      1.0  0.89610  0.74050  0.89780  1.0000 0.2485718793
H   H141      1.0  0.74050  0.89610  0.10220  1.0000 0.2485718793
H   H142      1.0  0.25950  0.10390  0.60220  1.0000 0.2485718793
H   H143      1.0  0.39610  0.75950  0.35220  1.0000 0.2485718793
H   H144      1.0  0.60390  0.24050  0.85220  1.0000 0.2485718793
C   C1        1.0  0.91360  0.85860  0.63960  1.0000 0.0509182281
C   C2        1.0  0.08640  0.14140  0.13960  1.0000 0.0509182281
C   C3        1.0  0.64140  0.41360  0.38960  1.0000 0.0509182281
C   C4        1.0  0.35860  0.58640  0.88960  1.0000 0.0509182281
C   C5        1.0  0.58640  0.35860  0.11040  1.0000 0.0509182281
C   C6        1.0  0.41360  0.64140  0.61040  1.0000 0.0509182281
C   C7        1.0  0.85860  0.91360  0.36040  1.0000 0.0509182281
C   C8        1.0  0.14140  0.08640  0.86040  1.0000 0.0509182281
C   C9        1.0  0.88570  0.79740  0.67870  1.0000 -0.2092614509
C   C10       1.0  0.11430  0.20260  0.17870  1.0000 -0.2092614509
C   C11       1.0  0.70260  0.38570  0.42870  1.0000 -0.2092614509
C   C12       1.0  0.29740  0.61430  0.92870  1.0000 -0.2092614509
C   C13       1.0  0.61430  0.29740  0.07130  1.0000 -0.2092614509
C   C14       1.0  0.38570  0.70260  0.57130  1.0000 -0.2092614509
C   C15       1.0  0.79740  0.88570  0.32130  1.0000 -0.2092614509
C   C16       1.0  0.20260  0.11430  0.82130  1.0000 -0.2092614509
C   C17       1.0  0.81150  0.75300  0.66440  1.0000 0.1216597959
C   C18       1.0  0.18850  0.24700  0.16440  1.0000 0.1216597959
C   C19       1.0  0.74700  0.31150  0.41440  1.0000 0.1216597959
C   C20       1.0  0.25300  0.68850  0.91440  1.0000 0.1216597959
C   C21       1.0  0.68850  0.25300  0.08560  1.0000 0.1216597959
C   C22       1.0  0.31150  0.74700  0.58560  1.0000 0.1216597959
C   C23       1.0  0.75300  0.81150  0.33560  1.0000 0.1216597959
C   C24       1.0  0.24700  0.18850  0.83560  1.0000 0.1216597959
C   C25       1.0  0.76860  0.78060  0.61280  1.0000 -0.2092614509
C   C26       1.0  0.23140  0.21940  0.11280  1.0000 -0.2092614509
C   C27       1.0  0.71940  0.26860  0.36280  1.0000 -0.2092614509
C   C28       1.0  0.28060  0.73140  0.86280  1.0000 -0.2092614509
C   C29       1.0  0.73140  0.28060  0.13720  1.0000 -0.2092614509
C   C30       1.0  0.26860  0.71940  0.63720  1.0000 -0.2092614509
C   C31       1.0  0.78060  0.76860  0.38720  1.0000 -0.2092614509
C   C32       1.0  0.21940  0.23140  0.88720  1.0000 -0.2092614509
C   C33       1.0  0.80280  0.84250  0.57580  1.0000 0.0424009022
C   C34       1.0  0.19720  0.15750  0.07580  1.0000 0.0424009022
C   C35       1.0  0.65750  0.30280  0.32580  1.0000 0.0424009022
C   C36       1.0  0.34250  0.69720  0.82580  1.0000 0.0424009022
C   C37       1.0  0.69720  0.34250  0.17420  1.0000 0.0424009022
C   C38       1.0  0.30280  0.65750  0.67420  1.0000 0.0424009022
C   C39       1.0  0.84250  0.80280  0.42420  1.0000 0.0424009022
C   C40       1.0  0.15750  0.19720  0.92420  1.0000 0.0424009022
C   C41       1.0  0.78150  0.68070  0.70160  1.0000 0.0690201733
C   C42       1.0  0.21850  0.31930  0.20160  1.0000 0.0690201733
C   C43       1.0  0.81930  0.28150  0.45160  1.0000 0.0690201733
C   C44       1.0  0.18070  0.71850  0.95160  1.0000 0.0690201733
C   C45       1.0  0.71850  0.18070  0.04840  1.0000 0.0690201733
C   C46       1.0  0.28150  0.81930  0.54840  1.0000 0.0690201733
C   C47       1.0  0.68070  0.78150  0.29840  1.0000 0.0690201733
C   C48       1.0  0.31930  0.21850  0.79840  1.0000 0.0690201733
C   C49       1.0  0.80770  0.66667  0.76170  1.0000 -0.1703968527
C   C50       1.0  0.19230  0.33333  0.26170  1.0000 -0.1703968527
C   C51       1.0  0.83333  0.30770  0.51170  1.0000 -0.1703968527
C   C52       1.0  0.16667  0.69230  0.01170  1.0000 -0.1703968527
C   C53       1.0  0.69230  0.16667  0.98830  1.0000 -0.1703968527
C   C54       1.0  0.30770  0.83333  0.48830  1.0000 -0.1703968527
C   C55       1.0  0.66667  0.80770  0.23830  1.0000 -0.1703968527
C   C56       1.0  0.33333  0.19230  0.73830  1.0000 -0.1703968527
C   C57       1.0  0.77670  0.59910  0.79510  1.0000 -0.1087460861
C   C58       1.0  0.22330  0.40090  0.29510  1.0000 -0.1087460861
C   C59       1.0  0.90090  0.27670  0.54510  1.0000 -0.1087460861
C   C60       1.0  0.09910  0.72330  0.04510  1.0000 -0.1087460861
C   C61       1.0  0.72330  0.09910  0.95490  1.0000 -0.1087460861
C   C62       1.0  0.27670  0.90090  0.45490  1.0000 -0.1087460861
C   C63       1.0  0.59910  0.77670  0.20490  1.0000 -0.1087460861
C   C64       1.0  0.40090  0.22330  0.70490  1.0000 -0.1087460861
C   C65       1.0  0.71750  0.54340  0.76910  1.0000 -0.1703968527
C   C66       1.0  0.28250  0.45660  0.26910  1.0000 -0.1703968527
C   C67       1.0  0.95660  0.21750  0.51910  1.0000 -0.1703968527
C   C68       1.0  0.04340  0.78250  0.01910  1.0000 -0.1703968527
C   C69       1.0  0.78250  0.04340  0.98090  1.0000 -0.1703968527
C   C70       1.0  0.21750  0.95660  0.48090  1.0000 -0.1703968527
C   C71       1.0  0.54340  0.71750  0.23090  1.0000 -0.1703968527
C   C72       1.0  0.45660  0.28250  0.73090  1.0000 -0.1703968527
C   C73       1.0  0.69010  0.55920  0.70970  1.0000 0.0246099821
C   C74       1.0  0.30990  0.44080  0.20970  1.0000 0.0246099821
C   C75       1.0  0.94080  0.19010  0.45970  1.0000 0.0246099821
C   C76       1.0  0.05920  0.80990  0.95970  1.0000 0.0246099821
C   C77       1.0  0.80990  0.05920  0.04030  1.0000 0.0246099821
C   C78       1.0  0.19010  0.94080  0.54030  1.0000 0.0246099821
C   C79       1.0  0.55920  0.69010  0.29030  1.0000 0.0246099821
C   C80       1.0  0.44080  0.30990  0.79030  1.0000 0.0246099821
C   C81       1.0  0.72150  0.62510  0.67650  1.0000 -0.2092614509
C   C82       1.0  0.27850  0.37490  0.17650  1.0000 -0.2092614509
C   C83       1.0  0.87490  0.22150  0.42650  1.0000 -0.2092614509
C   C84       1.0  0.12510  0.77850  0.92650  1.0000 -0.2092614509
C   C85       1.0  0.77850  0.12510  0.07350  1.0000 -0.2092614509
C   C86       1.0  0.22150  0.87490  0.57350  1.0000 -0.2092614509
C   C87       1.0  0.62510  0.72150  0.32350  1.0000 -0.2092614509
C   C88       1.0  0.37490  0.27850  0.82350  1.0000 -0.2092614509
C   C89       1.0  0.62810  0.50310  0.68030  1.0000 0.1670536279
C   C90       1.0  0.37190  0.49690  0.18030  1.0000 0.1670536279
C   C91       1.0  0.99690  0.12810  0.43030  1.0000 0.1670536279
C   C92       1.0  0.00310  0.87190  0.93030  1.0000 0.1670536279
C   C93       1.0  0.87190  0.00310  0.06970  1.0000 0.1670536279
C   C94       1.0  0.12810  0.99690  0.56970  1.0000 0.1670536279
C   C95       1.0  0.50310  0.62810  0.31970  1.0000 0.1670536279
C   C96       1.0  0.49690  0.37190  0.81970  1.0000 0.1670536279
C   C97       1.0  0.57570  0.40840  0.61810  1.0000 0.176520533
C   C98       1.0  0.42430  0.59160  0.11810  1.0000 0.176520533
C   C99       1.0  0.09160  0.07570  0.36810  1.0000 0.176520533
C   C100      1.0  0.90840  0.92430  0.86810  1.0000 0.176520533
C   C101      1.0  0.92430  0.90840  0.13190  1.0000 0.176520533
C   C102      1.0  0.07570  0.09160  0.63190  1.0000 0.176520533
C   C103      1.0  0.40840  0.57570  0.38190  1.0000 0.176520533
C   C104      1.0  0.59160  0.42430  0.88190  1.0000 0.176520533
C   C105      1.0  0.56740  0.33840  0.57370  1.0000 0.0424009022
C   C106      1.0  0.43260  0.66160  0.07370  1.0000 0.0424009022
C   C107      1.0  0.16160  0.06740  0.32370  1.0000 0.0424009022
C   C108      1.0  0.83840  0.93260  0.82370  1.0000 0.0424009022
C   C109      1.0  0.93260  0.83840  0.17630  1.0000 0.0424009022
C   C110      1.0  0.06740  0.16160  0.67630  1.0000 0.0424009022
C   C111      1.0  0.33840  0.56740  0.42630  1.0000 0.0424009022
C   C112      1.0  0.66160  0.43260  0.92630  1.0000 0.0424009022
C   C113      1.0  0.49600  0.33680  0.53620  1.0000 -0.1703968527
C   C114      1.0  0.50400  0.66320  0.03620  1.0000 -0.1703968527
C   C115      1.0  0.16320  0.99600  0.28620  1.0000 -0.1703968527
C   C116      1.0  0.83680  0.00400  0.78620  1.0000 -0.1703968527
C   C117      1.0  0.00400  0.83680  0.21380  1.0000 -0.1703968527
C   C118      1.0  0.99600  0.16320  0.71380  1.0000 -0.1703968527
C   C119      1.0  0.33680  0.49600  0.46380  1.0000 -0.1703968527
C   C120      1.0  0.66320  0.50400  0.96380  1.0000 -0.1703968527
C   C121      1.0  0.48530  0.27230  0.49580  1.0000 -0.1000535618
C   C122      1.0  0.51470  0.72770  0.99580  1.0000 -0.1000535618
C   C123      1.0  0.22770  0.98530  0.24580  1.0000 -0.1000535618
C   C124      1.0  0.77230  0.01470  0.74580  1.0000 -0.1000535618
C   C125      1.0  0.01470  0.77230  0.25420  1.0000 -0.1000535618
C   C126      1.0  0.98530  0.22770  0.75420  1.0000 -0.1000535618
C   C127      1.0  0.27230  0.48530  0.50420  1.0000 -0.1000535618
C   C128      1.0  0.72770  0.51470  0.00420  1.0000 -0.1000535618
C   C129      1.0  0.54360  0.21000  0.49040  1.0000 -0.1703968527
C   C130      1.0  0.45640  0.79000  0.99040  1.0000 -0.1703968527
C   C131      1.0  0.29000  0.04360  0.24040  1.0000 -0.1703968527
C   C132      1.0  0.71000  0.95640  0.74040  1.0000 -0.1703968527
C   C133      1.0  0.95640  0.71000  0.25960  1.0000 -0.1703968527
C   C134      1.0  0.04360  0.29000  0.75960  1.0000 -0.1703968527
C   C135      1.0  0.21000  0.54360  0.50960  1.0000 -0.1703968527
C   C136      1.0  0.79000  0.45640  0.00960  1.0000 -0.1703968527
C   C137      1.0  0.61710  0.20800  0.52820  1.0000 0.0690201733
C   C138      1.0  0.38290  0.79200  0.02820  1.0000 0.0690201733
C   C139      1.0  0.29200  0.11710  0.27820  1.0000 0.0690201733
C   C140      1.0  0.70800  0.88290  0.77820  1.0000 0.0690201733
C   C141      1.0  0.88290  0.70800  0.22180  1.0000 0.0690201733
C   C142      1.0  0.11710  0.29200  0.72180  1.0000 0.0690201733
C   C143      1.0  0.20800  0.61710  0.47180  1.0000 0.0690201733
C   C144      1.0  0.79200  0.38290  0.97180  1.0000 0.0690201733
C   C145      1.0  0.62690  0.27490  0.56990  1.0000 -0.2092614509
C   C146      1.0  0.37310  0.72510  0.06990  1.0000 -0.2092614509
C   C147      1.0  0.22510  0.12690  0.31990  1.0000 -0.2092614509
C   C148      1.0  0.77490  0.87310  0.81990  1.0000 -0.2092614509
C   C149      1.0  0.87310  0.77490  0.18010  1.0000 -0.2092614509
C   C150      1.0  0.12690  0.22510  0.68010  1.0000 -0.2092614509
C   C151      1.0  0.27490  0.62690  0.43010  1.0000 -0.2092614509
C   C152      1.0  0.72510  0.37310  0.93010  1.0000 -0.2092614509
C   C153      1.0  0.68190  0.14230  0.52200  1.0000 0.1095434771
C   C154      1.0  0.31810  0.85770  0.02200  1.0000 0.1095434771
C   C155      1.0  0.35770  0.18190  0.27200  1.0000 0.1095434771
C   C156      1.0  0.64230  0.81810  0.77200  1.0000 0.1095434771
C   C157      1.0  0.81810  0.64230  0.22800  1.0000 0.1095434771
C   C158      1.0  0.18190  0.35770  0.72800  1.0000 0.1095434771
C   C159      1.0  0.14230  0.68190  0.47800  1.0000 0.1095434771
C   C160      1.0  0.85770  0.31810  0.97800  1.0000 0.1095434771
C   C161      1.0  0.69280  0.09860  0.46830  1.0000 -0.2092614509
C   C162      1.0  0.30720  0.90140  0.96830  1.0000 -0.2092614509
C   C163      1.0  0.40140  0.19280  0.21830  1.0000 -0.2092614509
C   C164      1.0  0.59860  0.80720  0.71830  1.0000 -0.2092614509
C   C165      1.0  0.80720  0.59860  0.28170  1.0000 -0.2092614509
C   C166      1.0  0.19280  0.40140  0.78170  1.0000 -0.2092614509
C   C167      1.0  0.09860  0.69280  0.53170  1.0000 -0.2092614509
C   C168      1.0  0.90140  0.30720  0.03170  1.0000 -0.2012528032
C   C169      1.0  0.75960  0.04050  0.46320  1.0000 0.0690201733
C   C170      1.0  0.24040  0.95950  0.96320  1.0000 0.0690201733
C   C171      1.0  0.45950  0.25960  0.21320  1.0000 0.0690201733
C   C172      1.0  0.54050  0.74040  0.71320  1.0000 0.0690201733
C   C173      1.0  0.74040  0.54050  0.28680  1.0000 0.0690201733
C   C174      1.0  0.25960  0.45950  0.78680  1.0000 0.0690201733
C   C175      1.0  0.04050  0.75960  0.53680  1.0000 0.0690201733
C   C176      1.0  0.95950  0.24040  0.03680  1.0000 0.0690201733
C   C177      1.0  0.80170  0.06750  0.56100  1.0000 0.0609979761
C   C178      1.0  0.19830  0.93250  0.06100  1.0000 0.0609979761
C   C179      1.0  0.43250  0.30170  0.31100  1.0000 0.0609979761
C   C180      1.0  0.56750  0.69830  0.81100  1.0000 0.0609979761
C   C181      1.0  0.69830  0.56750  0.18900  1.0000 0.0609979761
C   C182      1.0  0.30170  0.43250  0.68900  1.0000 0.0609979761
C   C183      1.0  0.06750  0.80170  0.43900  1.0000 0.0609979761
C   C184      1.0  0.93250  0.19830  0.93900  1.0000 0.0609979761
C   C185      1.0  0.73900  0.12450  0.57060  1.0000 -0.2012528032
C   C186      1.0  0.26100  0.87550  0.07060  1.0000 -0.2012528032
C   C187      1.0  0.37550  0.23900  0.32060  1.0000 -0.2012528032
C   C188      1.0  0.62450  0.76100  0.82060  1.0000 -0.2012528032
C   C189      1.0  0.76100  0.62450  0.17940  1.0000 -0.2012528032
C   C190      1.0  0.23900  0.37550  0.67940  1.0000 -0.2012528032
C   C191      1.0  0.12450  0.73900  0.42940  1.0000 -0.2012528032
C   C192      1.0  0.87550  0.26100  0.92940  1.0000 -0.2012528032
N   N1        1.0  0.87580  0.87980  0.58740  1.0000 -0.2274168123
N   N2        1.0  0.12420  0.12020  0.08740  1.0000 -0.2274168123
N   N3        1.0  0.62020  0.37580  0.33740  1.0000 -0.2274168123
N   N4        1.0  0.37980  0.62420  0.83740  1.0000 -0.2274168123
N   N5        1.0  0.62420  0.37980  0.16260  1.0000 -0.2274168123
N   N6        1.0  0.37580  0.62020  0.66260  1.0000 -0.2274168123
N   N7        1.0  0.87980  0.87580  0.41260  1.0000 -0.2274168123
N   N8        1.0  0.12020  0.12420  0.91260  1.0000 -0.2274168123
N   N9        1.0  0.54480  0.50540  0.68400  1.0000 -0.2274168123
N   N10       1.0  0.45520  0.49460  0.18400  1.0000 -0.2274168123
N   N11       1.0  0.99460  0.04480  0.43400  1.0000 -0.2274168123
N   N12       1.0  0.00540  0.95520  0.93400  1.0000 -0.2274168123
N   N13       1.0  0.95520  0.00540  0.06600  1.0000 -0.2274168123
N   N14       1.0  0.04480  0.99460  0.56600  1.0000 -0.2274168123
N   N15       1.0  0.50540  0.54480  0.31600  1.0000 -0.2274168123
N   N16       1.0  0.49460  0.45520  0.81600  1.0000 -0.2274168123
N   N17       1.0  0.51210  0.44590  0.64490  1.0000 -0.2717885309
N   N18       1.0  0.48790  0.55410  0.14490  1.0000 -0.2717885309
N   N19       1.0  0.05410  0.01210  0.39490  1.0000 -0.2717885309
N   N20       1.0  0.94590  0.98790  0.89490  1.0000 -0.2717885309
N   N21       1.0  0.98790  0.94590  0.10510  1.0000 -0.2717885309
N   N22       1.0  0.01210  0.05410  0.60510  1.0000 -0.2717885309
N   N23       1.0  0.44590  0.51210  0.35510  1.0000 -0.2717885309
N   N24       1.0  0.55410  0.48790  0.85510  1.0000 -0.2717885309
N   N25       1.0  0.64930  0.44340  0.63910  1.0000 0.0609979761
N   N26       1.0  0.35070  0.55660  0.13910  1.0000 0.0609979761
N   N27       1.0  0.05660  0.14930  0.38910  1.0000 0.0609979761
N   N28       1.0  0.94340  0.85070  0.88910  1.0000 0.0609979761
N   N29       1.0  0.85070  0.94340  0.11090  1.0000 0.0609979761
N   N30       1.0  0.14930  0.05660  0.61090  1.0000 0.0609979761
N   N31       1.0  0.44340  0.64930  0.36090  1.0000 0.0609979761
N   N32       1.0  0.55660  0.35070  0.86090  1.0000 0.0609979761
N   N33       1.0  0.73110  0.42430  0.61790  1.0000 -0.5178015166
N   N34       1.0  0.26890  0.57570  0.11790  1.0000 -0.5178015166
N   N35       1.0  0.07570  0.23110  0.36790  1.0000 -0.5178015166
N   N36       1.0  0.92430  0.76890  0.86790  1.0000 -0.5178015166
N   N37       1.0  0.76890  0.92430  0.13210  1.0000 -0.5178015166
N   N38       1.0  0.23110  0.07570  0.63210  1.0000 -0.5178015166
N   N39       1.0  0.42430  0.73110  0.38210  1.0000 -0.5178015166
N   N40       1.0  0.57570  0.26890  0.88210  1.0000 -0.5178015166
N   N41       1.0  0.81390  0.02500  0.50840  1.0000 -0.2447001048
N   N42       1.0  0.18610  0.97500  0.00840  1.0000 -0.2447001048
N   N43       1.0  0.47500  0.31390  0.25840  1.0000 -0.2447001048
N   N44       1.0  0.52500  0.68610  0.75840  1.0000 -0.2447001048
N   N45       1.0  0.68610  0.52500  0.24160  1.0000 -0.2447001048
N   N46       1.0  0.31390  0.47500  0.74160  1.0000 -0.2447001048
N   N47       1.0  0.02500  0.81390  0.49160  1.0000 -0.2447001048
N   N48       1.0  0.97500  0.18610  0.99160  1.0000 -0.2447001048
