# DDEC6 charges by PACMAN v1.1 (https://github.com/mtap-research/PACMAN-charge/)
data_2010[Cd][nuc]3[ASR]5
_chemical_formula_sum              "Cd4 H144 C192 N48"
_cell_length_a       15.8721
_cell_length_b       15.8721
_cell_length_c       21.636
_cell_angle_alpha    90
_cell_angle_beta     90
_cell_angle_gamma    90

_symmetry_space_group_name_H-M    "P 1"
_symmetry_Int_Tables_number       1

loop_
  _symmetry_equiv_pos_as_xyz
  'x, y, z'

loop_
  _atom_site_type_symbol
  _atom_site_label
  _atom_site_symmetry_multiplicity
  _atom_site_fract_x
  _atom_site_fract_y
  _atom_site_fract_z
  _atom_site_occupancy
  _atom_site_charge
Cd  Cd1       1.0  0.44169  0.55831  0.75000  1.0000 0.6419593546
Cd  Cd2       1.0  0.55831  0.44169  0.25000  1.0000 0.6419593546
Cd  Cd3       1.0  0.94169  0.94169  0.50000  1.0000 0.6419593546
Cd  Cd4       1.0  0.05831  0.05831  0.00000  1.0000 0.6419593546
H   H1        1.0  0.96070  0.88960  0.65070  1.0000 0.0991525825
H   H2        1.0  0.03930  0.11040  0.15070  1.0000 0.0991525825
H   H3        1.0  0.61040  0.46070  0.40070  1.0000 0.0991525825
H   H4        1.0  0.38960  0.53930  0.90070  1.0000 0.0991525825
H   H5        1.0  0.53930  0.38960  0.09930  1.0000 0.0991525825
H   H6        1.0  0.46070  0.61040  0.59930  1.0000 0.0991525825
H   H7        1.0  0.88960  0.96070  0.34930  1.0000 0.0991525825
H   H8        1.0  0.11040  0.03930  0.84930  1.0000 0.0991525825
H   H9        1.0  0.91340  0.78540  0.71670  1.0000 0.1275655071
H   H10       1.0  0.08660  0.21460  0.21670  1.0000 0.1275655071
H   H11       1.0  0.71460  0.41340  0.46670  1.0000 0.1275655071
H   H12       1.0  0.28540  0.58660  0.96670  1.0000 0.1275655071
H   H13       1.0  0.58660  0.28540  0.03330  1.0000 0.1275655071
H   H14       1.0  0.41340  0.71460  0.53330  1.0000 0.1275655071
H   H15       1.0  0.78540  0.91340  0.28330  1.0000 0.1275655071
H   H16       1.0  0.21460  0.08660  0.78330  1.0000 0.1275655071
H   H17       1.0  0.71510  0.75520  0.60210  1.0000 0.1275655071
H   H18       1.0  0.28490  0.24480  0.10210  1.0000 0.1275655071
H   H19       1.0  0.74480  0.21510  0.35210  1.0000 0.1275655071
H   H20       1.0  0.25520  0.78490  0.85210  1.0000 0.1275655071
H   H21       1.0  0.78490  0.25520  0.14790  1.0000 0.1275655071
H   H22       1.0  0.21510  0.74480  0.64790  1.0000 0.1275655071
H   H23       1.0  0.75520  0.71510  0.39790  1.0000 0.1275655071
H   H24       1.0  0.24480  0.28490  0.89790  1.0000 0.1275655071
H   H25       1.0  0.76970  0.86130  0.54090  1.0000 0.091889419
H   H26       1.0  0.23030  0.13870  0.04090  1.0000 0.091889419
H   H27       1.0  0.63870  0.26970  0.29090  1.0000 0.091889419
H   H28       1.0  0.36130  0.73030  0.79090  1.0000 0.091889419
H   H29       1.0  0.73030  0.36130  0.20910  1.0000 0.091889419
H   H30       1.0  0.26970  0.63870  0.70910  1.0000 0.091889419
H   H31       1.0  0.86130  0.76970  0.45910  1.0000 0.091889419
H   H32       1.0  0.13870  0.23030  0.95910  1.0000 0.091889419
H   H33       1.0  0.84810  0.70110  0.78020  1.0000 0.0991525825
H   H34       1.0  0.15190  0.29890  0.28020  1.0000 0.0991525825
H   H35       1.0  0.79890  0.34810  0.53020  1.0000 0.0991525825
H   H36       1.0  0.20110  0.65190  0.03020  1.0000 0.0991525825
H   H37       1.0  0.65190  0.20110  0.96980  1.0000 0.0991525825
H   H38       1.0  0.34810  0.79890  0.46980  1.0000 0.0991525825
H   H39       1.0  0.70110  0.84810  0.21980  1.0000 0.0991525825
H   H40       1.0  0.29890  0.15190  0.71980  1.0000 0.0991525825
H   H41       1.0  0.79570  0.58790  0.83560  1.0000 0.1092306549
H   H42       1.0  0.20430  0.41210  0.33560  1.0000 0.1092306549
H   H43       1.0  0.91210  0.29570  0.58560  1.0000 0.1092306549
H   H44       1.0  0.08790  0.70430  0.08560  1.0000 0.1092306549
H   H45       1.0  0.70430  0.08790  0.91440  1.0000 0.1092306549
H   H46       1.0  0.29570  0.91210  0.41440  1.0000 0.1092306549
H   H47       1.0  0.58790  0.79570  0.16440  1.0000 0.1092306549
H   H48       1.0  0.41210  0.20430  0.66440  1.0000 0.1092306549
H   H49       1.0  0.69920  0.49410  0.79120  1.0000 0.1092306549
H   H50       1.0  0.30080  0.50590  0.29120  1.0000 0.1092306549
H   H51       1.0  0.00590  0.19920  0.54120  1.0000 0.1092306549
H   H52       1.0  0.99410  0.80080  0.04120  1.0000 0.1092306549
H   H53       1.0  0.80080  0.99410  0.95880  1.0000 0.1092306549
H   H54       1.0  0.19920  0.00590  0.45880  1.0000 0.1092306549
H   H55       1.0  0.49410  0.69920  0.20880  1.0000 0.1092306549
H   H56       1.0  0.50590  0.30080  0.70880  1.0000 0.1092306549
H   H57       1.0  0.69840  0.63590  0.63600  1.0000 0.1092306549
H   H58       1.0  0.30160  0.36410  0.13600  1.0000 0.1092306549
H   H59       1.0  0.86410  0.19840  0.38600  1.0000 0.1092306549
H   H60       1.0  0.13590  0.80160  0.88600  1.0000 0.1092306549
H   H61       1.0  0.80160  0.13590  0.11400  1.0000 0.1092306549
H   H62       1.0  0.19840  0.86410  0.61400  1.0000 0.1092306549
H   H63       1.0  0.63590  0.69840  0.36400  1.0000 0.1092306549
H   H64       1.0  0.36410  0.30160  0.86400  1.0000 0.1092306549
H   H65       1.0  0.45390  0.37940  0.53980  1.0000 0.1092306549
H   H66       1.0  0.54610  0.62060  0.03980  1.0000 0.1092306549
H   H67       1.0  0.12060  0.95390  0.28980  1.0000 0.1092306549
H   H68       1.0  0.87940  0.04610  0.78980  1.0000 0.1092306549
H   H69       1.0  0.04610  0.87940  0.21020  1.0000 0.1092306549
H   H70       1.0  0.95390  0.12060  0.71020  1.0000 0.1092306549
H   H71       1.0  0.37940  0.45390  0.46020  1.0000 0.1092306549
H   H72       1.0  0.62060  0.54610  0.96020  1.0000 0.1092306549
H   H73       1.0  0.43560  0.26830  0.46930  1.0000 0.1092306549
H   H74       1.0  0.56440  0.73170  0.96930  1.0000 0.1092306549
H   H75       1.0  0.23170  0.93560  0.21930  1.0000 0.1092306549
H   H76       1.0  0.76830  0.06440  0.71930  1.0000 0.1092306549
H   H77       1.0  0.06440  0.76830  0.28070  1.0000 0.1092306549
H   H78       1.0  0.93560  0.23170  0.78070  1.0000 0.1092306549
H   H79       1.0  0.26830  0.43560  0.53070  1.0000 0.1092306549
H   H80       1.0  0.73170  0.56440  0.03070  1.0000 0.1092306549
H   H81       1.0  0.53470  0.16230  0.46280  1.0000 0.1150161552
H   H82       1.0  0.46530  0.83770  0.96280  1.0000 0.1150161552
H   H83       1.0  0.33770  0.03470  0.21280  1.0000 0.1150161552
H   H84       1.0  0.66230  0.96530  0.71280  1.0000 0.1150161552
H   H85       1.0  0.96530  0.66230  0.28720  1.0000 0.1150161552
H   H86       1.0  0.03470  0.33770  0.78720  1.0000 0.1150161552
H   H87       1.0  0.16230  0.53470  0.53720  1.0000 0.1150161552
H   H88       1.0  0.83770  0.46530  0.03720  1.0000 0.1150161552
H   H89       1.0  0.67330  0.27660  0.59550  1.0000 0.0991525825
H   H90       1.0  0.32670  0.72340  0.09550  1.0000 0.0991525825
H   H91       1.0  0.22340  0.17330  0.34550  1.0000 0.0991525825
H   H92       1.0  0.77660  0.82670  0.84550  1.0000 0.0991525825
H   H93       1.0  0.82670  0.77660  0.15450  1.0000 0.0991525825
H   H94       1.0  0.17330  0.22340  0.65450  1.0000 0.0991525825
H   H95       1.0  0.27660  0.67330  0.40450  1.0000 0.0991525825
H   H96       1.0  0.72340  0.32670  0.90450  1.0000 0.0991525825
H   H97       1.0  0.65280  0.10220  0.43520  1.0000 0.1275655071
H   H98       1.0  0.34720  0.89780  0.93520  1.0000 0.1275655071
H   H99       1.0  0.39780  0.15280  0.18520  1.0000 0.1275655071
H   H100      1.0  0.60220  0.84720  0.68520  1.0000 0.1275655071
H   H101      1.0  0.84720  0.60220  0.31480  1.0000 0.1275655071
H   H102      1.0  0.15280  0.39780  0.81480  1.0000 0.1275655071
H   H103      1.0  0.10220  0.65280  0.56480  1.0000 0.1275655071
H   H104      1.0  0.89780  0.34720  0.06480  1.0000 0.1275655071
H   H105      1.0  0.76610  0.01160  0.42420  1.0000 0.091889419
H   H106      1.0  0.23390  0.98840  0.92420  1.0000 0.091889419
H   H107      1.0  0.48840  0.26610  0.17420  1.0000 0.091889419
H   H108      1.0  0.51160  0.73390  0.67420  1.0000 0.091889419
H   H109      1.0  0.73390  0.51160  0.32580  1.0000 0.091889419
H   H110      1.0  0.26610  0.48840  0.82580  1.0000 0.091889419
H   H111      1.0  0.01160  0.76610  0.57580  1.0000 0.091889419
H   H112      1.0  0.98840  0.23390  0.07580  1.0000 0.091889419
H   H113      1.0  0.84000  0.05730  0.59300  1.0000 0.0991525825
H   H114      1.0  0.16000  0.94270  0.09300  1.0000 0.0991525825
H   H115      1.0  0.44270  0.34000  0.34300  1.0000 0.0991525825
H   H116      1.0  0.55730  0.66000  0.84300  1.0000 0.0991525825
H   H117      1.0  0.66000  0.55730  0.15700  1.0000 0.0991525825
H   H118      1.0  0.34000  0.44270  0.65700  1.0000 0.0991525825
H   H119      1.0  0.05730  0.84000  0.40700  1.0000 0.0991525825
H   H120      1.0  0.94270  0.16000  0.90700  1.0000 0.0991525825
H   H121      1.0  0.73220  0.15240  0.60820  1.0000 0.1275655071
H   H122      1.0  0.26780  0.84760  0.10820  1.0000 0.1275655071
H   H123      1.0  0.34760  0.23220  0.35820  1.0000 0.1275655071
H   H124      1.0  0.65240  0.76780  0.85820  1.0000 0.1275655071
H   H125      1.0  0.76780  0.65240  0.14180  1.0000 0.1275655071
H   H126      1.0  0.23220  0.34760  0.64180  1.0000 0.1275655071
H   H127      1.0  0.15240  0.73220  0.39180  1.0000 0.1275655071
H   H128      1.0  0.84760  0.26780  0.89180  1.0000 0.1275655071
H   H129      1.0  0.75720  0.47210  0.60800  1.0000 0.2552321109
H   H130      1.0  0.24280  0.52790  0.10800  1.0000 0.2552321109
H   H131      1.0  0.02790  0.25720  0.35800  1.0000 0.2552321109
H   H132      1.0  0.97210  0.74280  0.85800  1.0000 0.2552321109
H   H133      1.0  0.74280  0.97210  0.14200  1.0000 0.2552321109
H   H134      1.0  0.25720  0.02790  0.64200  1.0000 0.2552321109
H   H135      1.0  0.47210  0.75720  0.39200  1.0000 0.2552321109
H   H136      1.0  0.52790  0.24280  0.89200  1.0000 0.2552321109
H   H137      1.0  0.75800  0.39520  0.64690  1.0000 0.2455060857
H   H138      1.0  0.24200  0.60480  0.14690  1.0000 0.2455060857
H   H139      1.0  0.10480  0.25800  0.39690  1.0000 0.2455060857
H   H140      1.0  0.89520  0.74200  0.89690  1.0000 0.2455060857
H   H141      1.0  0.74200  0.89520  0.10310  1.0000 0.2455060857
H   H142      1.0  0.25800  0.10480  0.60310  1.0000 0.2455060857
H   H143      1.0  0.39520  0.75800  0.35310  1.0000 0.2455060857
H   H144      1.0  0.60480  0.24200  0.85310  1.0000 0.2455060857
C   C1        1.0  0.91130  0.85940  0.63970  1.0000 0.0601051662
C   C2        1.0  0.08870  0.14060  0.13970  1.0000 0.0601051662
C   C3        1.0  0.64060  0.41130  0.38970  1.0000 0.0601051662
C   C4        1.0  0.35940  0.58870  0.88970  1.0000 0.0601051662
C   C5        1.0  0.58870  0.35940  0.11030  1.0000 0.0601051662
C   C6        1.0  0.41130  0.64060  0.61030  1.0000 0.0601051662
C   C7        1.0  0.85940  0.91130  0.36030  1.0000 0.0601051662
C   C8        1.0  0.14060  0.08870  0.86030  1.0000 0.0601051662
C   C9        1.0  0.88330  0.79780  0.67980  1.0000 -0.222236849
C   C10       1.0  0.11670  0.20220  0.17980  1.0000 -0.222236849
C   C11       1.0  0.70220  0.38330  0.42980  1.0000 -0.222236849
C   C12       1.0  0.29780  0.61670  0.92980  1.0000 -0.222236849
C   C13       1.0  0.61670  0.29780  0.07020  1.0000 -0.222236849
C   C14       1.0  0.38330  0.70220  0.57020  1.0000 -0.222236849
C   C15       1.0  0.79780  0.88330  0.32020  1.0000 -0.222236849
C   C16       1.0  0.20220  0.11670  0.82020  1.0000 -0.222236849
C   C17       1.0  0.80860  0.75340  0.66460  1.0000 0.1092306549
C   C18       1.0  0.19140  0.24660  0.16460  1.0000 0.1092306549
C   C19       1.0  0.74660  0.30860  0.41460  1.0000 0.1092306549
C   C20       1.0  0.25340  0.69140  0.91460  1.0000 0.1092306549
C   C21       1.0  0.69140  0.25340  0.08540  1.0000 0.1092306549
C   C22       1.0  0.30860  0.74660  0.58540  1.0000 0.1092306549
C   C23       1.0  0.75340  0.80860  0.33540  1.0000 0.1092306549
C   C24       1.0  0.24660  0.19140  0.83540  1.0000 0.1092306549
C   C25       1.0  0.76750  0.78020  0.61300  1.0000 -0.2074255768
C   C26       1.0  0.23250  0.21980  0.11300  1.0000 -0.2074255768
C   C27       1.0  0.71980  0.26750  0.36300  1.0000 -0.2074255768
C   C28       1.0  0.28020  0.73250  0.86300  1.0000 -0.2074255768
C   C29       1.0  0.73250  0.28020  0.13700  1.0000 -0.2074255768
C   C30       1.0  0.26750  0.71980  0.63700  1.0000 -0.2074255768
C   C31       1.0  0.78020  0.76750  0.38700  1.0000 -0.2074255768
C   C32       1.0  0.21980  0.23250  0.88700  1.0000 -0.2074255768
C   C33       1.0  0.80080  0.84310  0.57590  1.0000 0.0295328054
C   C34       1.0  0.19920  0.15690  0.07590  1.0000 0.0295328054
C   C35       1.0  0.65690  0.30080  0.32590  1.0000 0.0295328054
C   C36       1.0  0.34310  0.69920  0.82590  1.0000 0.0295328054
C   C37       1.0  0.69920  0.34310  0.17410  1.0000 0.0295328054
C   C38       1.0  0.30080  0.65690  0.67410  1.0000 0.0295328054
C   C39       1.0  0.84310  0.80080  0.42410  1.0000 0.0295328054
C   C40       1.0  0.15690  0.19920  0.92410  1.0000 0.0295328054
C   C41       1.0  0.77940  0.68100  0.70220  1.0000 0.0675623851
C   C42       1.0  0.22060  0.31900  0.20220  1.0000 0.0675623851
C   C43       1.0  0.81900  0.27940  0.45220  1.0000 0.0675623851
C   C44       1.0  0.18100  0.72060  0.95220  1.0000 0.0675623851
C   C45       1.0  0.72060  0.18100  0.04780  1.0000 0.0675623851
C   C46       1.0  0.27940  0.81900  0.54780  1.0000 0.0675623851
C   C47       1.0  0.68100  0.77940  0.29780  1.0000 0.0675623851
C   C48       1.0  0.31900  0.22060  0.79780  1.0000 0.0675623851
C   C49       1.0  0.80740  0.66510  0.76180  1.0000 -0.1689988074
C   C50       1.0  0.19260  0.33490  0.26180  1.0000 -0.1689988074
C   C51       1.0  0.83490  0.30740  0.51180  1.0000 -0.1689988074
C   C52       1.0  0.16510  0.69260  0.01180  1.0000 -0.1689988074
C   C53       1.0  0.69260  0.16510  0.98820  1.0000 -0.1689988074
C   C54       1.0  0.30740  0.83490  0.48820  1.0000 -0.1689988074
C   C55       1.0  0.66510  0.80740  0.23820  1.0000 -0.1689988074
C   C56       1.0  0.33490  0.19260  0.73820  1.0000 -0.1689988074
C   C57       1.0  0.77660  0.59720  0.79460  1.0000 -0.1047766215
C   C58       1.0  0.22340  0.40280  0.29460  1.0000 -0.1047766215
C   C59       1.0  0.90280  0.27660  0.54460  1.0000 -0.1047766215
C   C60       1.0  0.09720  0.72340  0.04460  1.0000 -0.1047766215
C   C61       1.0  0.72340  0.09720  0.95540  1.0000 -0.1047766215
C   C62       1.0  0.27660  0.90280  0.45540  1.0000 -0.1047766215
C   C63       1.0  0.59720  0.77660  0.20540  1.0000 -0.1047766215
C   C64       1.0  0.40280  0.22340  0.70540  1.0000 -0.1047766215
C   C65       1.0  0.71830  0.54210  0.76900  1.0000 -0.1689988074
C   C66       1.0  0.28170  0.45790  0.26900  1.0000 -0.1689988074
C   C67       1.0  0.95790  0.21830  0.51900  1.0000 -0.1689988074
C   C68       1.0  0.04210  0.78170  0.01900  1.0000 -0.1689988074
C   C69       1.0  0.78170  0.04210  0.98100  1.0000 -0.1689988074
C   C70       1.0  0.21830  0.95790  0.48100  1.0000 -0.1689988074
C   C71       1.0  0.54210  0.71830  0.23100  1.0000 -0.1689988074
C   C72       1.0  0.45790  0.28170  0.73100  1.0000 -0.1689988074
C   C73       1.0  0.68870  0.55960  0.70990  1.0000 0.0295328054
C   C74       1.0  0.31130  0.44040  0.20990  1.0000 0.0295328054
C   C75       1.0  0.94040  0.18870  0.45990  1.0000 0.0295328054
C   C76       1.0  0.05960  0.81130  0.95990  1.0000 0.0295328054
C   C77       1.0  0.81130  0.05960  0.04010  1.0000 0.0295328054
C   C78       1.0  0.18870  0.94040  0.54010  1.0000 0.0295328054
C   C79       1.0  0.55960  0.68870  0.29010  1.0000 0.0295328054
C   C80       1.0  0.44040  0.31130  0.79010  1.0000 0.0295328054
C   C81       1.0  0.71860  0.62620  0.67670  1.0000 -0.2074255768
C   C82       1.0  0.28140  0.37380  0.17670  1.0000 -0.2074255768
C   C83       1.0  0.87380  0.21860  0.42670  1.0000 -0.2074255768
C   C84       1.0  0.12620  0.78140  0.92670  1.0000 -0.2074255768
C   C85       1.0  0.78140  0.12620  0.07330  1.0000 -0.2074255768
C   C86       1.0  0.21860  0.87380  0.57330  1.0000 -0.2074255768
C   C87       1.0  0.62620  0.71860  0.32330  1.0000 -0.2074255768
C   C88       1.0  0.37380  0.28140  0.82330  1.0000 -0.2074255768
C   C89       1.0  0.62610  0.50310  0.68000  1.0000 0.1753381835
C   C90       1.0  0.37390  0.49690  0.18000  1.0000 0.1743860248
C   C91       1.0  0.99690  0.12610  0.43000  1.0000 0.1753381835
C   C92       1.0  0.00310  0.87390  0.93000  1.0000 0.1753381835
C   C93       1.0  0.87390  0.00310  0.07000  1.0000 0.1753381835
C   C94       1.0  0.12610  0.99690  0.57000  1.0000 0.1753381835
C   C95       1.0  0.50310  0.62610  0.32000  1.0000 0.1753381835
C   C96       1.0  0.49690  0.37390  0.82000  1.0000 0.1753381835
C   C97       1.0  0.57470  0.40850  0.61730  1.0000 0.1855754893
C   C98       1.0  0.42530  0.59150  0.11730  1.0000 0.1855754893
C   C99       1.0  0.09150  0.07470  0.36730  1.0000 0.1855754893
C   C100      1.0  0.90850  0.92530  0.86730  1.0000 0.1855754893
C   C101      1.0  0.92530  0.90850  0.13270  1.0000 0.1855754893
C   C102      1.0  0.07470  0.09150  0.63270  1.0000 0.1855754893
C   C103      1.0  0.40850  0.57470  0.38270  1.0000 0.1855754893
C   C104      1.0  0.59150  0.42530  0.88270  1.0000 0.1855754893
C   C105      1.0  0.56670  0.33760  0.57290  1.0000 0.0408076237
C   C106      1.0  0.43330  0.66240  0.07290  1.0000 0.0408076237
C   C107      1.0  0.16240  0.06670  0.32290  1.0000 0.0408076237
C   C108      1.0  0.83760  0.93330  0.82290  1.0000 0.0408076237
C   C109      1.0  0.93330  0.83760  0.17710  1.0000 0.0408076237
C   C110      1.0  0.06670  0.16240  0.67710  1.0000 0.0408076237
C   C111      1.0  0.33760  0.56670  0.42710  1.0000 0.0408076237
C   C112      1.0  0.66240  0.43330  0.92710  1.0000 0.0408076237
C   C113      1.0  0.49490  0.33610  0.53650  1.0000 -0.1611994418
C   C114      1.0  0.50510  0.66390  0.03650  1.0000 -0.1611994418
C   C115      1.0  0.16390  0.99490  0.28650  1.0000 -0.1611994418
C   C116      1.0  0.83610  0.00510  0.78650  1.0000 -0.1611994418
C   C117      1.0  0.00510  0.83610  0.21350  1.0000 -0.1611994418
C   C118      1.0  0.99490  0.16390  0.71350  1.0000 -0.1611994418
C   C119      1.0  0.33610  0.49490  0.46350  1.0000 -0.1611994418
C   C120      1.0  0.66390  0.50510  0.96350  1.0000 -0.1611994418
C   C121      1.0  0.48410  0.26990  0.49510  1.0000 -0.112007748
C   C122      1.0  0.51590  0.73010  0.99510  1.0000 -0.112007748
C   C123      1.0  0.23010  0.98410  0.24510  1.0000 -0.112007748
C   C124      1.0  0.76990  0.01590  0.74510  1.0000 -0.112007748
C   C125      1.0  0.01590  0.76990  0.25490  1.0000 -0.112007748
C   C126      1.0  0.98410  0.23010  0.75490  1.0000 -0.112007748
C   C127      1.0  0.26990  0.48410  0.50490  1.0000 -0.112007748
C   C128      1.0  0.73010  0.51590  0.00490  1.0000 -0.112007748
C   C129      1.0  0.54320  0.20710  0.49130  1.0000 -0.1611994418
C   C130      1.0  0.45680  0.79290  0.99130  1.0000 -0.1611994418
C   C131      1.0  0.29290  0.04320  0.24130  1.0000 -0.1611994418
C   C132      1.0  0.70710  0.95680  0.74130  1.0000 -0.1611994418
C   C133      1.0  0.95680  0.70710  0.25870  1.0000 -0.1611994418
C   C134      1.0  0.04320  0.29290  0.75870  1.0000 -0.1611994418
C   C135      1.0  0.20710  0.54320  0.50870  1.0000 -0.1611994418
C   C136      1.0  0.79290  0.45680  0.00870  1.0000 -0.1611994418
C   C137      1.0  0.61520  0.20720  0.52810  1.0000 0.0675623851
C   C138      1.0  0.38480  0.79280  0.02810  1.0000 0.0675623851
C   C139      1.0  0.29280  0.11520  0.27810  1.0000 0.0675623851
C   C140      1.0  0.70720  0.88480  0.77810  1.0000 0.0675623851
C   C141      1.0  0.88480  0.70720  0.22190  1.0000 0.0675623851
C   C142      1.0  0.11520  0.29280  0.72190  1.0000 0.0675623851
C   C143      1.0  0.20720  0.61520  0.47190  1.0000 0.0675623851
C   C144      1.0  0.79280  0.38480  0.97190  1.0000 0.0675623851
C   C145      1.0  0.62520  0.27480  0.56950  1.0000 -0.1966166121
C   C146      1.0  0.37480  0.72520  0.06950  1.0000 -0.1966166121
C   C147      1.0  0.22520  0.12520  0.31950  1.0000 -0.1966166121
C   C148      1.0  0.77480  0.87480  0.81950  1.0000 -0.1966166121
C   C149      1.0  0.87480  0.77480  0.18050  1.0000 -0.1966166121
C   C150      1.0  0.12520  0.22520  0.68050  1.0000 -0.1966166121
C   C151      1.0  0.27480  0.62520  0.43050  1.0000 -0.1966166121
C   C152      1.0  0.72520  0.37480  0.93050  1.0000 -0.1966166121
C   C153      1.0  0.68070  0.14150  0.52250  1.0000 0.1092306549
C   C154      1.0  0.31930  0.85850  0.02250  1.0000 0.1092306549
C   C155      1.0  0.35850  0.18070  0.27250  1.0000 0.1092306549
C   C156      1.0  0.64150  0.81930  0.77250  1.0000 0.1092306549
C   C157      1.0  0.81930  0.64150  0.22750  1.0000 0.1092306549
C   C158      1.0  0.18070  0.35850  0.72750  1.0000 0.1092306549
C   C159      1.0  0.14150  0.68070  0.47750  1.0000 0.1092306549
C   C160      1.0  0.85850  0.31930  0.97750  1.0000 0.1092306549
C   C161      1.0  0.69150  0.09560  0.46830  1.0000 -0.2074255768
C   C162      1.0  0.30850  0.90440  0.96830  1.0000 -0.2074255768
C   C163      1.0  0.40440  0.19150  0.21830  1.0000 -0.2074255768
C   C164      1.0  0.59560  0.80850  0.71830  1.0000 -0.2074255768
C   C165      1.0  0.80850  0.59560  0.28170  1.0000 -0.2074255768
C   C166      1.0  0.19150  0.40440  0.78170  1.0000 -0.2074255768
C   C167      1.0  0.09560  0.69150  0.53170  1.0000 -0.2074255768
C   C168      1.0  0.90440  0.30850  0.03170  1.0000 -0.2074255768
C   C169      1.0  0.75860  0.04000  0.46240  1.0000 0.0548737276
C   C170      1.0  0.24140  0.96000  0.96240  1.0000 0.0548737276
C   C171      1.0  0.46000  0.25860  0.21240  1.0000 0.0548737276
C   C172      1.0  0.54000  0.74140  0.71240  1.0000 0.0548737276
C   C173      1.0  0.74140  0.54000  0.28760  1.0000 0.0548737276
C   C174      1.0  0.25860  0.46000  0.78760  1.0000 0.0548737276
C   C175      1.0  0.04000  0.75860  0.53760  1.0000 0.0548737276
C   C176      1.0  0.96000  0.24140  0.03760  1.0000 0.0548737276
C   C177      1.0  0.80160  0.06710  0.56010  1.0000 0.0675623851
C   C178      1.0  0.19840  0.93290  0.06010  1.0000 0.0675623851
C   C179      1.0  0.43290  0.30160  0.31010  1.0000 0.0675623851
C   C180      1.0  0.56710  0.69840  0.81010  1.0000 0.0675623851
C   C181      1.0  0.69840  0.56710  0.18990  1.0000 0.0675623851
C   C182      1.0  0.30160  0.43290  0.68990  1.0000 0.0675623851
C   C183      1.0  0.06710  0.80160  0.43990  1.0000 0.0675623851
C   C184      1.0  0.93290  0.19840  0.93990  1.0000 0.0675623851
C   C185      1.0  0.73740  0.12450  0.56950  1.0000 -0.2074255768
C   C186      1.0  0.26260  0.87550  0.06950  1.0000 -0.2074255768
C   C187      1.0  0.37550  0.23740  0.31950  1.0000 -0.2074255768
C   C188      1.0  0.62450  0.76260  0.81950  1.0000 -0.2074255768
C   C189      1.0  0.76260  0.62450  0.18050  1.0000 -0.2074255768
C   C190      1.0  0.23740  0.37550  0.68050  1.0000 -0.2074255768
C   C191      1.0  0.12450  0.73740  0.43050  1.0000 -0.2074255768
C   C192      1.0  0.87550  0.26260  0.93050  1.0000 -0.2074255768
N   N1        1.0  0.87470  0.87890  0.58770  1.0000 -0.222236849
N   N2        1.0  0.12530  0.12110  0.08770  1.0000 -0.222236849
N   N3        1.0  0.62110  0.37470  0.33770  1.0000 -0.222236849
N   N4        1.0  0.37890  0.62530  0.83770  1.0000 -0.222236849
N   N5        1.0  0.62530  0.37890  0.16230  1.0000 -0.222236849
N   N6        1.0  0.37470  0.62110  0.66230  1.0000 -0.222236849
N   N7        1.0  0.87890  0.87470  0.41230  1.0000 -0.222236849
N   N8        1.0  0.12110  0.12530  0.91230  1.0000 -0.222236849
N   N9        1.0  0.54440  0.50610  0.68370  1.0000 -0.2387713042
N   N10       1.0  0.45560  0.49390  0.18370  1.0000 -0.2387713042
N   N11       1.0  0.99390  0.04440  0.43370  1.0000 -0.2387713042
N   N12       1.0  0.00610  0.95560  0.93370  1.0000 -0.2387713042
N   N13       1.0  0.95560  0.00610  0.06630  1.0000 -0.2387713042
N   N14       1.0  0.04440  0.99390  0.56630  1.0000 -0.2387713042
N   N15       1.0  0.50610  0.54440  0.31630  1.0000 -0.2387713042
N   N16       1.0  0.49390  0.45560  0.81630  1.0000 -0.2387713042
N   N17       1.0  0.51100  0.44530  0.64430  1.0000 -0.2893278521
N   N18       1.0  0.48900  0.55470  0.14430  1.0000 -0.2893278521
N   N19       1.0  0.05470  0.01100  0.39430  1.0000 -0.2893278521
N   N20       1.0  0.94530  0.98900  0.89430  1.0000 -0.2893278521
N   N21       1.0  0.98900  0.94530  0.10570  1.0000 -0.2893278521
N   N22       1.0  0.01100  0.05470  0.60570  1.0000 -0.2893278521
N   N23       1.0  0.44530  0.51100  0.35570  1.0000 -0.2893278521
N   N24       1.0  0.55470  0.48900  0.85570  1.0000 -0.2893278521
N   N25       1.0  0.64810  0.44240  0.63850  1.0000 0.0601051662
N   N26       1.0  0.35190  0.55760  0.13850  1.0000 0.0601051662
N   N27       1.0  0.05760  0.14810  0.38850  1.0000 0.0601051662
N   N28       1.0  0.94240  0.85190  0.88850  1.0000 0.0601051662
N   N29       1.0  0.85190  0.94240  0.11150  1.0000 0.0601051662
N   N30       1.0  0.14810  0.05760  0.61150  1.0000 0.0601051662
N   N31       1.0  0.44240  0.64810  0.36150  1.0000 0.0601051662
N   N32       1.0  0.55760  0.35190  0.86150  1.0000 0.0601051662
N   N33       1.0  0.72960  0.42340  0.61700  1.0000 -0.5155949664
N   N34       1.0  0.27040  0.57660  0.11700  1.0000 -0.5155949664
N   N35       1.0  0.07660  0.22960  0.36700  1.0000 -0.5155949664
N   N36       1.0  0.92340  0.77040  0.86700  1.0000 -0.5155949664
N   N37       1.0  0.77040  0.92340  0.13300  1.0000 -0.5155949664
N   N38       1.0  0.22960  0.07660  0.63300  1.0000 -0.5155949664
N   N39       1.0  0.42340  0.72960  0.38300  1.0000 -0.5155949664
N   N40       1.0  0.57660  0.27040  0.88300  1.0000 -0.5155949664
N   N41       1.0  0.81290  0.02480  0.50800  1.0000 -0.2387713042
N   N42       1.0  0.18710  0.97520  0.00800  1.0000 -0.2387713042
N   N43       1.0  0.47520  0.31290  0.25800  1.0000 -0.2387713042
N   N44       1.0  0.52480  0.68710  0.75800  1.0000 -0.2387713042
N   N45       1.0  0.68710  0.52480  0.24200  1.0000 -0.2387713042
N   N46       1.0  0.31290  0.47520  0.74200  1.0000 -0.2387713042
N   N47       1.0  0.02480  0.81290  0.49200  1.0000 -0.2387713042
N   N48       1.0  0.97520  0.18710  0.99200  1.0000 -0.2387713042
