# DDEC6 charges by PACMAN v1.1 (https://github.com/mtap-research/PACMAN-charge/)
data_2010[Cd][nuc]3[ASR]9
_chemical_formula_sum              "Cd4 H144 C192 N48"
_cell_length_a       15.8562
_cell_length_b       15.8562
_cell_length_c       21.765
_cell_angle_alpha    90
_cell_angle_beta     90
_cell_angle_gamma    90

_symmetry_space_group_name_H-M    "P 1"
_symmetry_Int_Tables_number       1

loop_
  _symmetry_equiv_pos_as_xyz
  'x, y, z'

loop_
  _atom_site_type_symbol
  _atom_site_label
  _atom_site_symmetry_multiplicity
  _atom_site_fract_x
  _atom_site_fract_y
  _atom_site_fract_z
  _atom_site_occupancy
  _atom_site_charge
Cd  Cd1       1.0  0.94021  0.05979  0.75000  1.0000 0.6432159715
Cd  Cd2       1.0  0.05979  0.94021  0.25000  1.0000 0.6432159715
Cd  Cd3       1.0  0.44021  0.44021  0.50000  1.0000 0.6432159715
Cd  Cd4       1.0  0.55979  0.55979  0.00000  1.0000 0.6432159715
H   H1        1.0  0.25690  0.50480  0.42920  1.0000 0.0992635432
H   H2        1.0  0.74310  0.49520  0.92920  1.0000 0.0992635432
H   H3        1.0  0.99520  0.75690  0.17920  1.0000 0.0992635432
H   H4        1.0  0.00480  0.24310  0.67920  1.0000 0.0992635432
H   H5        1.0  0.24310  0.00480  0.32080  1.0000 0.0992635432
H   H6        1.0  0.75690  0.99520  0.82080  1.0000 0.0992635432
H   H7        1.0  0.50480  0.25690  0.57080  1.0000 0.0992635432
H   H8        1.0  0.49520  0.74310  0.07080  1.0000 0.0992635432
H   H9        1.0  0.14680  0.59660  0.44070  1.0000 0.1279151201
H   H10       1.0  0.85320  0.40340  0.94070  1.0000 0.1279151201
H   H11       1.0  0.90340  0.64680  0.19070  1.0000 0.1279151201
H   H12       1.0  0.09660  0.35320  0.69070  1.0000 0.1279151201
H   H13       1.0  0.35320  0.09660  0.30930  1.0000 0.1279151201
H   H14       1.0  0.64680  0.90340  0.80930  1.0000 0.1279151201
H   H15       1.0  0.59660  0.14680  0.55930  1.0000 0.1279151201
H   H16       1.0  0.40340  0.85320  0.05930  1.0000 0.1279151201
H   H17       1.0  0.23610  0.65440  0.60660  1.0000 0.1279151201
H   H18       1.0  0.76390  0.34560  0.10660  1.0000 0.1279151201
H   H19       1.0  0.84560  0.73610  0.35660  1.0000 0.1279151201
H   H20       1.0  0.15440  0.26390  0.85660  1.0000 0.1279151201
H   H21       1.0  0.26390  0.15440  0.14340  1.0000 0.1279151201
H   H22       1.0  0.73610  0.84560  0.64340  1.0000 0.1279151201
H   H23       1.0  0.65440  0.23610  0.39340  1.0000 0.1279151201
H   H24       1.0  0.34560  0.76390  0.89340  1.0000 0.1279151201
H   H25       1.0  0.34240  0.55990  0.59120  1.0000 0.0992635432
H   H26       1.0  0.65760  0.44010  0.09120  1.0000 0.0992635432
H   H27       1.0  0.94010  0.84240  0.34120  1.0000 0.0992635432
H   H28       1.0  0.05990  0.15760  0.84120  1.0000 0.0992635432
H   H29       1.0  0.15760  0.05990  0.15880  1.0000 0.0992635432
H   H30       1.0  0.84240  0.94010  0.65880  1.0000 0.0992635432
H   H31       1.0  0.55990  0.34240  0.40880  1.0000 0.0992635432
H   H32       1.0  0.44010  0.65760  0.90880  1.0000 0.0992635432
H   H33       1.0  0.03270  0.66290  0.46620  1.0000 0.1100888453
H   H34       1.0  0.96730  0.33710  0.96620  1.0000 0.1100888453
H   H35       1.0  0.83710  0.53270  0.21620  1.0000 0.1100888453
H   H36       1.0  0.16290  0.46730  0.71620  1.0000 0.1100888453
H   H37       1.0  0.46730  0.16290  0.28380  1.0000 0.1100888453
H   H38       1.0  0.53270  0.83710  0.78380  1.0000 0.1100888453
H   H39       1.0  0.66290  0.03270  0.53380  1.0000 0.1100888453
H   H40       1.0  0.33710  0.96730  0.03380  1.0000 0.1100888453
H   H41       1.0  0.93350  0.76610  0.47600  1.0000 0.1100888453
H   H42       1.0  0.06650  0.23390  0.97600  1.0000 0.1100888453
H   H43       1.0  0.73390  0.43350  0.22600  1.0000 0.1100888453
H   H44       1.0  0.26610  0.56650  0.72600  1.0000 0.1100888453
H   H45       1.0  0.56650  0.26610  0.27400  1.0000 0.1100888453
H   H46       1.0  0.43350  0.73390  0.77400  1.0000 0.1100888453
H   H47       1.0  0.76610  0.93350  0.52400  1.0000 0.1100888453
H   H48       1.0  0.23390  0.06650  0.02400  1.0000 0.1100888453
H   H49       1.0  0.95430  0.87960  0.54090  1.0000 0.1100888453
H   H50       1.0  0.04570  0.12040  0.04090  1.0000 0.1100888453
H   H51       1.0  0.62040  0.45430  0.29090  1.0000 0.1100888453
H   H52       1.0  0.37960  0.54570  0.79090  1.0000 0.1100888453
H   H53       1.0  0.54570  0.37960  0.20910  1.0000 0.1100888453
H   H54       1.0  0.45430  0.62040  0.70910  1.0000 0.1100888453
H   H55       1.0  0.87960  0.95430  0.45910  1.0000 0.1100888453
H   H56       1.0  0.12040  0.04570  0.95910  1.0000 0.1100888453
H   H57       1.0  0.17390  0.77610  0.59500  1.0000 0.0992635432
H   H58       1.0  0.82610  0.22390  0.09500  1.0000 0.0992635432
H   H59       1.0  0.72390  0.67390  0.34500  1.0000 0.0992635432
H   H60       1.0  0.27610  0.32610  0.84500  1.0000 0.0992635432
H   H61       1.0  0.32610  0.27610  0.15500  1.0000 0.0992635432
H   H62       1.0  0.67390  0.72390  0.65500  1.0000 0.0992635432
H   H63       1.0  0.77610  0.17390  0.40500  1.0000 0.0992635432
H   H64       1.0  0.22390  0.82610  0.90500  1.0000 0.0992635432
H   H65       1.0  0.19890  0.99750  0.79120  1.0000 0.1100888453
H   H66       1.0  0.80110  0.00250  0.29120  1.0000 0.1100888453
H   H67       1.0  0.50250  0.69890  0.54120  1.0000 0.1100888453
H   H68       1.0  0.49750  0.30110  0.04120  1.0000 0.1100888453
H   H69       1.0  0.30110  0.49750  0.95880  1.0000 0.1100888453
H   H70       1.0  0.69890  0.50250  0.45880  1.0000 0.1100888453
H   H71       1.0  0.99750  0.19890  0.20880  1.0000 0.1100888453
H   H72       1.0  0.00250  0.80110  0.70880  1.0000 0.1100888453
H   H73       1.0  0.29470  0.09030  0.83570  1.0000 0.1100888453
H   H74       1.0  0.70530  0.90970  0.33570  1.0000 0.1100888453
H   H75       1.0  0.40970  0.79470  0.58570  1.0000 0.1100888453
H   H76       1.0  0.59030  0.20530  0.08570  1.0000 0.1100888453
H   H77       1.0  0.20530  0.59030  0.91430  1.0000 0.1100888453
H   H78       1.0  0.79470  0.40970  0.41430  1.0000 0.1100888453
H   H79       1.0  0.09030  0.29470  0.16430  1.0000 0.1100888453
H   H80       1.0  0.90970  0.70530  0.66430  1.0000 0.1100888453
H   H81       1.0  0.34370  0.20550  0.78100  1.0000 0.0992635432
H   H82       1.0  0.65630  0.79450  0.28100  1.0000 0.0992635432
H   H83       1.0  0.29450  0.84370  0.53100  1.0000 0.0992635432
H   H84       1.0  0.70550  0.15630  0.03100  1.0000 0.0992635432
H   H85       1.0  0.15630  0.70550  0.96900  1.0000 0.0992635432
H   H86       1.0  0.84370  0.29450  0.46900  1.0000 0.0992635432
H   H87       1.0  0.20550  0.34370  0.21900  1.0000 0.0992635432
H   H88       1.0  0.79450  0.65630  0.71900  1.0000 0.0992635432
H   H89       1.0  0.19570  0.14060  0.63960  1.0000 0.1100888453
H   H90       1.0  0.80430  0.85940  0.13960  1.0000 0.1100888453
H   H91       1.0  0.35940  0.69570  0.38960  1.0000 0.1100888453
H   H92       1.0  0.64060  0.30430  0.88960  1.0000 0.1100888453
H   H93       1.0  0.30430  0.64060  0.11040  1.0000 0.1100888453
H   H94       1.0  0.69570  0.35940  0.61040  1.0000 0.1100888453
H   H95       1.0  0.14060  0.19570  0.36040  1.0000 0.1100888453
H   H96       1.0  0.85940  0.80430  0.86040  1.0000 0.1100888453
H   H97       1.0  0.41270  0.28510  0.71530  1.0000 0.1279151201
H   H98       1.0  0.58730  0.71490  0.21530  1.0000 0.1279151201
H   H99       1.0  0.21490  0.91270  0.46530  1.0000 0.1279151201
H   H100      1.0  0.78510  0.08730  0.96530  1.0000 0.1279151201
H   H101      1.0  0.08730  0.78510  0.03470  1.0000 0.1279151201
H   H102      1.0  0.91270  0.21490  0.53470  1.0000 0.1279151201
H   H103      1.0  0.28510  0.41270  0.28470  1.0000 0.1279151201
H   H104      1.0  0.71490  0.58730  0.78470  1.0000 0.1279151201
H   H105      1.0  0.46350  0.38610  0.64980  1.0000 0.0992635432
H   H106      1.0  0.53650  0.61390  0.14980  1.0000 0.0992635432
H   H107      1.0  0.11390  0.96350  0.39980  1.0000 0.0992635432
H   H108      1.0  0.88610  0.03650  0.89980  1.0000 0.0992635432
H   H109      1.0  0.03650  0.88610  0.10020  1.0000 0.0992635432
H   H110      1.0  0.96350  0.11390  0.60020  1.0000 0.0992635432
H   H111      1.0  0.38610  0.46350  0.35020  1.0000 0.0992635432
H   H112      1.0  0.61390  0.53650  0.85020  1.0000 0.0992635432
H   H113      1.0  0.26820  0.35990  0.54250  1.0000 0.0992635432
H   H114      1.0  0.73180  0.64010  0.04250  1.0000 0.0992635432
H   H115      1.0  0.14010  0.76820  0.29250  1.0000 0.0992635432
H   H116      1.0  0.85990  0.23180  0.79250  1.0000 0.0992635432
H   H117      1.0  0.23180  0.85990  0.20750  1.0000 0.0992635432
H   H118      1.0  0.76820  0.14010  0.70750  1.0000 0.0992635432
H   H119      1.0  0.35990  0.26820  0.45750  1.0000 0.0992635432
H   H120      1.0  0.64010  0.73180  0.95750  1.0000 0.0992635432
H   H121      1.0  0.21040  0.26350  0.60630  1.0000 0.1279151201
H   H122      1.0  0.78960  0.73650  0.10630  1.0000 0.1279151201
H   H123      1.0  0.23650  0.71040  0.35630  1.0000 0.1279151201
H   H124      1.0  0.76350  0.28960  0.85630  1.0000 0.1279151201
H   H125      1.0  0.28960  0.76350  0.14370  1.0000 0.1279151201
H   H126      1.0  0.71040  0.23650  0.64370  1.0000 0.1279151201
H   H127      1.0  0.26350  0.21040  0.39370  1.0000 0.1279151201
H   H128      1.0  0.73650  0.78960  0.89370  1.0000 0.1279151201
H   H129      1.0  0.25830  0.97310  0.61390  1.0000 0.2490551271
H   H130      1.0  0.74170  0.02690  0.11390  1.0000 0.2490551271
H   H131      1.0  0.52690  0.75830  0.36390  1.0000 0.2490551271
H   H132      1.0  0.47310  0.24170  0.86390  1.0000 0.2490551271
H   H133      1.0  0.24170  0.47310  0.13610  1.0000 0.2490551271
H   H134      1.0  0.75830  0.52690  0.63610  1.0000 0.2490551271
H   H135      1.0  0.97310  0.25830  0.38610  1.0000 0.2490551271
H   H136      1.0  0.02690  0.74170  0.88610  1.0000 0.2490551271
H   H137      1.0  0.25700  0.89380  0.64740  1.0000 0.2360937022
H   H138      1.0  0.74300  0.10620  0.14740  1.0000 0.2360937022
H   H139      1.0  0.60620  0.75700  0.39740  1.0000 0.2360937022
H   H140      1.0  0.39380  0.24300  0.89740  1.0000 0.2360937022
H   H141      1.0  0.24300  0.39380  0.10260  1.0000 0.2360937022
H   H142      1.0  0.75700  0.60620  0.60260  1.0000 0.2360937022
H   H143      1.0  0.89380  0.25700  0.35260  1.0000 0.2360937022
H   H144      1.0  0.10620  0.74300  0.85260  1.0000 0.2360937022
C   C1        1.0  0.25300  0.53570  0.46540  1.0000 0.057206907
C   C2        1.0  0.74700  0.46430  0.96540  1.0000 0.057206907
C   C3        1.0  0.96430  0.75300  0.21540  1.0000 0.057206907
C   C4        1.0  0.03570  0.24700  0.71540  1.0000 0.057206907
C   C5        1.0  0.24700  0.03570  0.28460  1.0000 0.057206907
C   C6        1.0  0.75300  0.96430  0.78460  1.0000 0.057206907
C   C7        1.0  0.53570  0.25300  0.53460  1.0000 0.057206907
C   C8        1.0  0.46430  0.74700  0.03460  1.0000 0.057206907
C   C9        1.0  0.18680  0.59190  0.47180  1.0000 -0.2077417463
C   C10       1.0  0.81320  0.40810  0.97180  1.0000 -0.2077417463
C   C11       1.0  0.90810  0.68680  0.22180  1.0000 -0.2077417463
C   C12       1.0  0.09190  0.31320  0.72180  1.0000 -0.2077417463
C   C13       1.0  0.31320  0.09190  0.27820  1.0000 -0.2077417463
C   C14       1.0  0.68680  0.90810  0.77820  1.0000 -0.2077417463
C   C15       1.0  0.59190  0.18680  0.52820  1.0000 -0.2077417463
C   C16       1.0  0.40810  0.81320  0.02820  1.0000 -0.2077417463
C   C17       1.0  0.17950  0.64090  0.52390  1.0000 0.1100888453
C   C18       1.0  0.82050  0.35910  0.02390  1.0000 0.1100888453
C   C19       1.0  0.85910  0.67950  0.27390  1.0000 0.1100888453
C   C20       1.0  0.14090  0.32050  0.77390  1.0000 0.1100888453
C   C21       1.0  0.32050  0.14090  0.22610  1.0000 0.1100888453
C   C22       1.0  0.67950  0.85910  0.72610  1.0000 0.1100888453
C   C23       1.0  0.64090  0.17950  0.47610  1.0000 0.1100888453
C   C24       1.0  0.35910  0.82050  0.97610  1.0000 0.1100888453
C   C25       1.0  0.23930  0.62560  0.56940  1.0000 -0.200124622
C   C26       1.0  0.76070  0.37440  0.06940  1.0000 -0.200124622
C   C27       1.0  0.87440  0.73930  0.31940  1.0000 -0.200124622
C   C28       1.0  0.12560  0.26070  0.81940  1.0000 -0.200124622
C   C29       1.0  0.26070  0.12560  0.18060  1.0000 -0.200124622
C   C30       1.0  0.73930  0.87440  0.68060  1.0000 -0.200124622
C   C31       1.0  0.62560  0.23930  0.43060  1.0000 -0.200124622
C   C32       1.0  0.37440  0.76070  0.93060  1.0000 -0.200124622
C   C33       1.0  0.30320  0.56810  0.56000  1.0000 0.0677226702
C   C34       1.0  0.69680  0.43190  0.06000  1.0000 0.0677226702
C   C35       1.0  0.93190  0.80320  0.31000  1.0000 0.0677226702
C   C36       1.0  0.06810  0.19680  0.81000  1.0000 0.0677226702
C   C37       1.0  0.19680  0.06810  0.19000  1.0000 0.0677226702
C   C38       1.0  0.80320  0.93190  0.69000  1.0000 0.0677226702
C   C39       1.0  0.56810  0.30320  0.44000  1.0000 0.0677226702
C   C40       1.0  0.43190  0.69680  0.94000  1.0000 0.0677226702
C   C41       1.0  0.11460  0.70740  0.53000  1.0000 0.0677226702
C   C42       1.0  0.88540  0.29260  0.03000  1.0000 0.0677226702
C   C43       1.0  0.79260  0.61460  0.28000  1.0000 0.0677226702
C   C44       1.0  0.20740  0.38540  0.78000  1.0000 0.0677226702
C   C45       1.0  0.38540  0.20740  0.22000  1.0000 0.0677226702
C   C46       1.0  0.61460  0.79260  0.72000  1.0000 0.0677226702
C   C47       1.0  0.70740  0.11460  0.47000  1.0000 0.0677226702
C   C48       1.0  0.29260  0.88540  0.97000  1.0000 0.0677226702
C   C49       1.0  0.04130  0.70660  0.49410  1.0000 -0.1627079748
C   C50       1.0  0.95870  0.29340  0.99410  1.0000 -0.1627079748
C   C51       1.0  0.79340  0.54130  0.24410  1.0000 -0.1627079748
C   C52       1.0  0.20660  0.45870  0.74410  1.0000 -0.1627079748
C   C53       1.0  0.45870  0.20660  0.25590  1.0000 -0.1627079748
C   C54       1.0  0.54130  0.79340  0.75590  1.0000 -0.1627079748
C   C55       1.0  0.70660  0.04130  0.50590  1.0000 -0.1627079748
C   C56       1.0  0.29340  0.95870  0.00590  1.0000 -0.1627079748
C   C57       1.0  0.98240  0.76900  0.49940  1.0000 -0.1095573246
C   C58       1.0  0.01760  0.23100  0.99940  1.0000 -0.1095573246
C   C59       1.0  0.73100  0.48240  0.24940  1.0000 -0.1095573246
C   C60       1.0  0.26900  0.51760  0.74940  1.0000 -0.1095573246
C   C61       1.0  0.51760  0.26900  0.25060  1.0000 -0.1095573246
C   C62       1.0  0.48240  0.73100  0.75060  1.0000 -0.1095573246
C   C63       1.0  0.76900  0.98240  0.50060  1.0000 -0.1095573246
C   C64       1.0  0.23100  0.01760  0.00060  1.0000 -0.1095573246
C   C65       1.0  0.99400  0.83650  0.53870  1.0000 -0.1627079748
C   C66       1.0  0.00600  0.16350  0.03870  1.0000 -0.1627079748
C   C67       1.0  0.66350  0.49400  0.28870  1.0000 -0.1627079748
C   C68       1.0  0.33650  0.50600  0.78870  1.0000 -0.1627079748
C   C69       1.0  0.50600  0.33650  0.21130  1.0000 -0.1627079748
C   C70       1.0  0.49400  0.66350  0.71130  1.0000 -0.1627079748
C   C71       1.0  0.83650  0.99400  0.46130  1.0000 -0.1627079748
C   C72       1.0  0.16350  0.00600  0.96130  1.0000 -0.1627079748
C   C73       1.0  0.06690  0.83870  0.57540  1.0000 0.0363599612
C   C74       1.0  0.93310  0.16130  0.07540  1.0000 0.0363599612
C   C75       1.0  0.66130  0.56690  0.32540  1.0000 0.0348808341
C   C76       1.0  0.33870  0.43310  0.82540  1.0000 0.0363599612
C   C77       1.0  0.43310  0.33870  0.17460  1.0000 0.0363599612
C   C78       1.0  0.56690  0.66130  0.67460  1.0000 0.0348808341
C   C79       1.0  0.83870  0.06690  0.42460  1.0000 0.0363599612
C   C80       1.0  0.16130  0.93310  0.92460  1.0000 0.0348808341
C   C81       1.0  0.12580  0.77440  0.57060  1.0000 -0.200124622
C   C82       1.0  0.87420  0.22560  0.07060  1.0000 -0.200124622
C   C83       1.0  0.72560  0.62580  0.32060  1.0000 -0.200124622
C   C84       1.0  0.27440  0.37420  0.82060  1.0000 -0.200124622
C   C85       1.0  0.37420  0.27440  0.17940  1.0000 -0.200124622
C   C86       1.0  0.62580  0.72560  0.67940  1.0000 -0.200124622
C   C87       1.0  0.77440  0.12580  0.42940  1.0000 -0.200124622
C   C88       1.0  0.22560  0.87420  0.92940  1.0000 -0.200124622
C   C89       1.0  0.07500  0.90860  0.61890  1.0000 0.176901028
C   C90       1.0  0.92500  0.09140  0.11890  1.0000 0.176901028
C   C91       1.0  0.59140  0.57500  0.36890  1.0000 0.176901028
C   C92       1.0  0.40860  0.42500  0.86890  1.0000 0.176901028
C   C93       1.0  0.42500  0.40860  0.13110  1.0000 0.176901028
C   C94       1.0  0.57500  0.59140  0.63110  1.0000 0.176901028
C   C95       1.0  0.90860  0.07500  0.38110  1.0000 0.176901028
C   C96       1.0  0.09140  0.92500  0.88110  1.0000 0.176901028
C   C97       1.0  0.12570  0.00460  0.68050  1.0000 0.1746785365
C   C98       1.0  0.87430  0.99540  0.18050  1.0000 0.1746785365
C   C99       1.0  0.49540  0.62570  0.43050  1.0000 0.1746785365
C   C100      1.0  0.50460  0.37430  0.93050  1.0000 0.1746785365
C   C101      1.0  0.37430  0.50460  0.06950  1.0000 0.1746785365
C   C102      1.0  0.62570  0.49540  0.56950  1.0000 0.1746785365
C   C103      1.0  0.00460  0.12570  0.31950  1.0000 0.1746785365
C   C104      1.0  0.99540  0.87430  0.81950  1.0000 0.1746785365
C   C105      1.0  0.18750  0.06130  0.71090  1.0000 0.0207295832
C   C106      1.0  0.81250  0.93870  0.21090  1.0000 0.0207295832
C   C107      1.0  0.43870  0.68750  0.46090  1.0000 0.0207295832
C   C108      1.0  0.56130  0.31250  0.96090  1.0000 0.0207295832
C   C109      1.0  0.31250  0.56130  0.03910  1.0000 0.0207295832
C   C110      1.0  0.68750  0.43870  0.53910  1.0000 0.0207295832
C   C111      1.0  0.06130  0.18750  0.28910  1.0000 0.0207295832
C   C112      1.0  0.93870  0.81250  0.78910  1.0000 0.0207295832
C   C113      1.0  0.21740  0.04480  0.76970  1.0000 -0.1691828077
C   C114      1.0  0.78260  0.95520  0.26970  1.0000 -0.1691828077
C   C115      1.0  0.45520  0.71740  0.51970  1.0000 -0.1691828077
C   C116      1.0  0.54480  0.28260  0.01970  1.0000 -0.1691828077
C   C117      1.0  0.28260  0.54480  0.98030  1.0000 -0.1691828077
C   C118      1.0  0.71740  0.45520  0.48030  1.0000 -0.1691828077
C   C119      1.0  0.04480  0.21740  0.23030  1.0000 -0.1691828077
C   C120      1.0  0.95520  0.78260  0.73030  1.0000 -0.1691828077
C   C121      1.0  0.27540  0.09990  0.79600  1.0000 -0.1095573246
C   C122      1.0  0.72460  0.90010  0.29600  1.0000 -0.1095573246
C   C123      1.0  0.40010  0.77540  0.54600  1.0000 -0.1095573246
C   C124      1.0  0.59990  0.22460  0.04600  1.0000 -0.1095573246
C   C125      1.0  0.22460  0.59990  0.95400  1.0000 -0.1095573246
C   C126      1.0  0.77540  0.40010  0.45400  1.0000 -0.1095573246
C   C127      1.0  0.09990  0.27540  0.20400  1.0000 -0.1095573246
C   C128      1.0  0.90010  0.72460  0.70400  1.0000 -0.1095573246
C   C129      1.0  0.30460  0.16920  0.76310  1.0000 -0.1691828077
C   C130      1.0  0.69540  0.83080  0.26310  1.0000 -0.1691828077
C   C131      1.0  0.33080  0.80460  0.51310  1.0000 -0.1691828077
C   C132      1.0  0.66920  0.19540  0.01310  1.0000 -0.1691828077
C   C133      1.0  0.19540  0.66920  0.98690  1.0000 -0.1691828077
C   C134      1.0  0.80460  0.33080  0.48690  1.0000 -0.1691828077
C   C135      1.0  0.16920  0.30460  0.23690  1.0000 -0.1691828077
C   C136      1.0  0.83080  0.69540  0.73690  1.0000 -0.1691828077
C   C137      1.0  0.27590  0.18460  0.70390  1.0000 0.0677226702
C   C138      1.0  0.72410  0.81540  0.20390  1.0000 0.0677226702
C   C139      1.0  0.31540  0.77590  0.45390  1.0000 0.0677226702
C   C140      1.0  0.68460  0.22410  0.95390  1.0000 0.0677226702
C   C141      1.0  0.22410  0.68460  0.04610  1.0000 0.0677226702
C   C142      1.0  0.77590  0.31540  0.54610  1.0000 0.0677226702
C   C143      1.0  0.18460  0.27590  0.29610  1.0000 0.0677226702
C   C144      1.0  0.81540  0.72410  0.79610  1.0000 0.0677226702
C   C145      1.0  0.21630  0.13020  0.67890  1.0000 -0.2077417463
C   C146      1.0  0.78370  0.86980  0.17890  1.0000 -0.2077417463
C   C147      1.0  0.36980  0.71630  0.42890  1.0000 -0.2077417463
C   C148      1.0  0.63020  0.28370  0.92890  1.0000 -0.2077417463
C   C149      1.0  0.28370  0.63020  0.07110  1.0000 -0.2077417463
C   C150      1.0  0.71630  0.36980  0.57110  1.0000 -0.2077417463
C   C151      1.0  0.13020  0.21630  0.32110  1.0000 -0.2077417463
C   C152      1.0  0.86980  0.78370  0.82110  1.0000 -0.2077417463
C   C153      1.0  0.30680  0.25730  0.66667  1.0000 0.1100888453
C   C154      1.0  0.69320  0.74270  0.16667  1.0000 0.1100888453
C   C155      1.0  0.24270  0.80680  0.41667  1.0000 0.1100888453
C   C156      1.0  0.75730  0.19320  0.91667  1.0000 0.1100888453
C   C157      1.0  0.19320  0.75730  0.08333  1.0000 0.1100888453
C   C158      1.0  0.80680  0.24270  0.58333  1.0000 0.1100888453
C   C159      1.0  0.25730  0.30680  0.33333  1.0000 0.1100888453
C   C160      1.0  0.74270  0.69320  0.83333  1.0000 0.1100888453
C   C161      1.0  0.38290  0.29850  0.67980  1.0000 -0.2077417463
C   C162      1.0  0.61710  0.70150  0.17980  1.0000 -0.2077417463
C   C163      1.0  0.20150  0.88290  0.42980  1.0000 -0.2077417463
C   C164      1.0  0.79850  0.11710  0.92980  1.0000 -0.2077417463
C   C165      1.0  0.11710  0.79850  0.07020  1.0000 -0.2077417463
C   C166      1.0  0.88290  0.20150  0.57020  1.0000 -0.2077417463
C   C167      1.0  0.29850  0.38290  0.32020  1.0000 -0.2077417463
C   C168      1.0  0.70150  0.61710  0.82020  1.0000 -0.2077417463
C   C169      1.0  0.41340  0.35880  0.63990  1.0000 0.0492670996
C   C170      1.0  0.58660  0.64120  0.13990  1.0000 0.0492670996
C   C171      1.0  0.14120  0.91340  0.38990  1.0000 0.0492670996
C   C172      1.0  0.85880  0.08660  0.88990  1.0000 0.0492670996
C   C173      1.0  0.08660  0.85880  0.11010  1.0000 0.0492670996
C   C174      1.0  0.91340  0.14120  0.61010  1.0000 0.0492670996
C   C175      1.0  0.35880  0.41340  0.36010  1.0000 0.0492670996
C   C176      1.0  0.64120  0.58660  0.86010  1.0000 0.0492670996
C   C177      1.0  0.29830  0.34390  0.57730  1.0000 0.0363599612
C   C178      1.0  0.70170  0.65610  0.07730  1.0000 0.0363599612
C   C179      1.0  0.15610  0.79830  0.32730  1.0000 0.0363599612
C   C180      1.0  0.84390  0.20170  0.82730  1.0000 0.0363599612
C   C181      1.0  0.20170  0.84390  0.17270  1.0000 0.0363599612
C   C182      1.0  0.79830  0.15610  0.67270  1.0000 0.0363599612
C   C183      1.0  0.34390  0.29830  0.42270  1.0000 0.0363599612
C   C184      1.0  0.65610  0.70170  0.92270  1.0000 0.0363599612
C   C185      1.0  0.26350  0.28510  0.61510  1.0000 -0.2077417463
C   C186      1.0  0.73650  0.71490  0.11510  1.0000 -0.2077417463
C   C187      1.0  0.21490  0.76350  0.36510  1.0000 -0.2077417463
C   C188      1.0  0.78510  0.23650  0.86510  1.0000 -0.2077417463
C   C189      1.0  0.23650  0.78510  0.13490  1.0000 -0.2077417463
C   C190      1.0  0.76350  0.21490  0.63490  1.0000 -0.2077417463
C   C191      1.0  0.28510  0.26350  0.38490  1.0000 -0.2077417463
C   C192      1.0  0.71490  0.73650  0.88490  1.0000 -0.2077417463
N   N1        1.0  0.31150  0.52370  0.50840  1.0000 -0.2396848552
N   N2        1.0  0.68850  0.47630  0.00840  1.0000 -0.2396848552
N   N3        1.0  0.97630  0.81150  0.25840  1.0000 -0.2396848552
N   N4        1.0  0.02370  0.18850  0.75840  1.0000 -0.2396848552
N   N5        1.0  0.18850  0.02370  0.24160  1.0000 -0.2396848552
N   N6        1.0  0.81150  0.97630  0.74160  1.0000 -0.2396848552
N   N7        1.0  0.52370  0.31150  0.49160  1.0000 -0.2396848552
N   N8        1.0  0.47630  0.68850  0.99160  1.0000 -0.2396848552
N   N9        1.0  0.01110  0.94620  0.64514  1.0000 -0.2766788468
N   N10       1.0  0.98890  0.05380  0.14514  1.0000 -0.2766788468
N   N11       1.0  0.55380  0.51110  0.39514  1.0000 -0.2766788468
N   N12       1.0  0.44620  0.48890  0.89514  1.0000 -0.2766788468
N   N13       1.0  0.48890  0.44620  0.10486  1.0000 -0.2766788468
N   N14       1.0  0.51110  0.55380  0.60486  1.0000 -0.2766788468
N   N15       1.0  0.94620  0.01110  0.35486  1.0000 -0.2766788468
N   N16       1.0  0.05380  0.98890  0.85486  1.0000 -0.2766788468
N   N17       1.0  0.04400  0.00700  0.68371  1.0000 -0.2277428932
N   N18       1.0  0.95600  0.99300  0.18371  1.0000 -0.2277428932
N   N19       1.0  0.49300  0.54400  0.43371  1.0000 -0.2277428932
N   N20       1.0  0.50700  0.45600  0.93371  1.0000 -0.2277428932
N   N21       1.0  0.45600  0.50700  0.06629  1.0000 -0.2277428932
N   N22       1.0  0.54400  0.49300  0.56629  1.0000 -0.2277428932
N   N23       1.0  0.00700  0.04400  0.31629  1.0000 -0.2277428932
N   N24       1.0  0.99300  0.95600  0.81629  1.0000 -0.2277428932
N   N25       1.0  0.14860  0.94370  0.64022  1.0000 0.057206907
N   N26       1.0  0.85140  0.05630  0.14022  1.0000 0.057206907
N   N27       1.0  0.55630  0.64860  0.39022  1.0000 0.057206907
N   N28       1.0  0.44370  0.35140  0.89022  1.0000 0.057206907
N   N29       1.0  0.35140  0.44370  0.10978  1.0000 0.057206907
N   N30       1.0  0.64860  0.55630  0.60978  1.0000 0.057206907
N   N31       1.0  0.94370  0.14860  0.35978  1.0000 0.057206907
N   N32       1.0  0.05630  0.85140  0.85978  1.0000 0.057206907
N   N33       1.0  0.23040  0.92510  0.61950  1.0000 -0.5081287451
N   N34       1.0  0.76960  0.07490  0.11950  1.0000 -0.5081287451
N   N35       1.0  0.57490  0.73040  0.36950  1.0000 -0.5081287451
N   N36       1.0  0.42510  0.26960  0.86950  1.0000 -0.5081287451
N   N37       1.0  0.26960  0.42510  0.13050  1.0000 -0.5081287451
N   N38       1.0  0.73040  0.57490  0.63050  1.0000 -0.5081287451
N   N39       1.0  0.92510  0.23040  0.38050  1.0000 -0.5081287451
N   N40       1.0  0.07490  0.76960  0.88050  1.0000 -0.5081287451
N   N41       1.0  0.37370  0.38020  0.58726  1.0000 -0.2396848552
N   N42       1.0  0.62630  0.61980  0.08726  1.0000 -0.2396848552
N   N43       1.0  0.11980  0.87370  0.33726  1.0000 -0.2396848552
N   N44       1.0  0.88020  0.12630  0.83726  1.0000 -0.2396848552
N   N45       1.0  0.12630  0.88020  0.16274  1.0000 -0.2396848552
N   N46       1.0  0.87370  0.11980  0.66274  1.0000 -0.2396848552
N   N47       1.0  0.38020  0.37370  0.41274  1.0000 -0.2396848552
N   N48       1.0  0.61980  0.62630  0.91274  1.0000 -0.2396848552
