# DDEC6 charges by PACMAN v1.1 (https://github.com/mtap-research/PACMAN-charge/)
data_PEDMOB_ASR_pacman
_symmetry_space_group_name_H-M   'P 1'
_cell_length_a   7.91720000
_cell_length_b   17.77680000
_cell_length_c   20.38540000
_cell_angle_alpha   90.00000000
_cell_angle_beta   90.00000000
_cell_angle_gamma   90.00000000
_symmetry_Int_Tables_number   1
_chemical_formula_structural   Cu2P3H27C30N2O9
_chemical_formula_sum   'Cu8 P12 H108 C120 N8 O36'
_cell_volume   2869.09177136
_cell_formula_units_Z   4
loop_
 _symmetry_equiv_pos_site_id
 _symmetry_equiv_pos_as_xyz
  1  'x, y, z'
loop_
 _atom_site_type_symbol
 _atom_site_label
 _atom_site_symmetry_multiplicity
 _atom_site_fract_x
 _atom_site_fract_y
 _atom_site_fract_z
 _atom_site_occupancy
 _atom_site_charge
Cu  Cu1  1  0.66969000  0.89378000  0.04861000  1.0 0.8699990941
Cu  Cu2  1  0.33031000  0.89378000  0.95139000  1.0 0.8699990941
Cu  Cu3  1  0.16969000  0.10622000  0.45139000  1.0 0.8699990941
Cu  Cu4  1  0.83031000  0.10622000  0.54861000  1.0 0.8699990941
Cu  Cu5  1  0.33031000  0.10622000  0.95139000  1.0 0.8699990941
Cu  Cu6  1  0.66969000  0.10622000  0.04861000  1.0 0.8699990941
Cu  Cu7  1  0.83031000  0.89378000  0.54861000  1.0 0.8699990941
Cu  Cu8  1  0.16969000  0.89378000  0.45139000  1.0 0.8699990941
P  P1  1  0.72888000  0.84486000  0.19935000  1.0 1.1997936649
P  P2  1  0.27112000  0.84486000  0.80065000  1.0 1.1997936649
P  P3  1  0.22888000  0.15514000  0.30065000  1.0 1.1997936649
P  P4  1  0.77112000  0.15514000  0.69935000  1.0 1.1997936649
P  P5  1  0.27112000  0.15514000  0.80065000  1.0 1.1997936649
P  P6  1  0.72888000  0.15514000  0.19935000  1.0 1.1997936649
P  P7  1  0.77112000  0.84486000  0.69935000  1.0 1.1997936649
P  P8  1  0.22888000  0.84486000  0.30065000  1.0 1.1997936649
P  P9  1  0.88030000  0.00000000  0.42845000  1.0 1.2523669732
P  P10  1  0.11970000  0.00000000  0.57155000  1.0 1.2523669732
P  P11  1  0.38030000  0.00000000  0.07155000  1.0 1.2523669732
P  P12  1  0.61970000  0.00000000  0.92845000  1.0 1.2523669732
H  H1  1  0.97090000  0.81240000  0.21030000  1.0 0.3718157691
H  H2  1  0.02910000  0.81240000  0.78970000  1.0 0.3718157691
H  H3  1  0.47090000  0.18760000  0.28970000  1.0 0.3718157691
H  H4  1  0.52910000  0.18760000  0.71030000  1.0 0.3718157691
H  H5  1  0.02910000  0.18760000  0.78970000  1.0 0.3718157691
H  H6  1  0.97090000  0.18760000  0.21030000  1.0 0.3718157691
H  H7  1  0.52910000  0.81240000  0.71030000  1.0 0.3718157691
H  H8  1  0.47090000  0.81240000  0.28970000  1.0 0.3718157691
H  H9  1  0.80390000  0.88560000  0.33420000  1.0 0.1297292394
H  H10  1  0.19610000  0.88560000  0.66580000  1.0 0.1297292394
H  H11  1  0.30390000  0.11440000  0.16580000  1.0 0.1297292394
H  H12  1  0.69610000  0.11440000  0.83420000  1.0 0.1297292394
H  H13  1  0.19610000  0.11440000  0.66580000  1.0 0.1297292394
H  H14  1  0.80390000  0.11440000  0.33420000  1.0 0.1297292394
H  H15  1  0.69610000  0.88560000  0.83420000  1.0 0.1297292394
H  H16  1  0.30390000  0.88560000  0.16580000  1.0 0.1297292394
H  H17  1  0.73830000  0.61250000  0.06670000  1.0 0.0995522522
H  H18  1  0.26170000  0.61250000  0.93330000  1.0 0.0995522522
H  H19  1  0.23830000  0.38750000  0.43330000  1.0 0.0995522522
H  H20  1  0.76170000  0.38750000  0.56670000  1.0 0.0995522522
H  H21  1  0.26170000  0.38750000  0.93330000  1.0 0.0995522522
H  H22  1  0.73830000  0.38750000  0.06670000  1.0 0.0995522522
H  H23  1  0.76170000  0.61250000  0.56670000  1.0 0.0995522522
H  H24  1  0.23830000  0.61250000  0.43330000  1.0 0.0995522522
H  H25  1  0.92410000  0.70380000  0.89990000  1.0 0.0995522522
H  H26  1  0.07590000  0.70380000  0.10010000  1.0 0.0995522522
H  H27  1  0.42410000  0.29620000  0.60010000  1.0 0.0995522522
H  H28  1  0.57590000  0.29620000  0.39990000  1.0 0.0995522522
H  H29  1  0.07590000  0.29620000  0.10010000  1.0 0.0995522522
H  H30  1  0.92410000  0.29620000  0.89990000  1.0 0.0995522522
H  H31  1  0.57590000  0.70380000  0.39990000  1.0 0.0995522522
H  H32  1  0.42410000  0.70380000  0.60010000  1.0 0.0995522522
H  H33  1  0.89210000  0.56730000  0.90800000  1.0 0.0818740576
H  H34  1  0.10790000  0.56730000  0.09200000  1.0 0.0818740576
H  H35  1  0.39210000  0.43270000  0.59200000  1.0 0.0818740576
H  H36  1  0.60790000  0.43270000  0.40800000  1.0 0.0818740576
H  H37  1  0.10790000  0.43270000  0.09200000  1.0 0.0818740576
H  H38  1  0.89210000  0.43270000  0.90800000  1.0 0.0818740576
H  H39  1  0.60790000  0.56730000  0.40800000  1.0 0.0818740576
H  H40  1  0.39210000  0.56730000  0.59200000  1.0 0.0818740576
H  H41  1  0.03390000  0.56970000  0.96030000  1.0 0.0818740576
H  H42  1  0.96610000  0.56970000  0.03970000  1.0 0.0818740576
H  H43  1  0.53390000  0.43030000  0.53970000  1.0 0.0818740576
H  H44  1  0.46610000  0.43030000  0.46030000  1.0 0.0818740576
H  H45  1  0.96610000  0.43030000  0.03970000  1.0 0.0818740576
H  H46  1  0.03390000  0.43030000  0.96030000  1.0 0.0818740576
H  H47  1  0.46610000  0.56970000  0.46030000  1.0 0.0818740576
H  H48  1  0.53390000  0.56970000  0.53970000  1.0 0.0818740576
H  H49  1  0.69550000  0.73100000  0.10300000  1.0 0.0818740576
H  H50  1  0.30450000  0.73100000  0.89700000  1.0 0.0818740576
H  H51  1  0.19550000  0.26900000  0.39700000  1.0 0.0818740576
H  H52  1  0.80450000  0.26900000  0.60300000  1.0 0.0818740576
H  H53  1  0.30450000  0.26900000  0.89700000  1.0 0.0818740576
H  H54  1  0.69550000  0.26900000  0.10300000  1.0 0.0818740576
H  H55  1  0.80450000  0.73100000  0.60300000  1.0 0.0818740576
H  H56  1  0.19550000  0.73100000  0.39700000  1.0 0.0818740576
H  H57  1  0.79900000  0.81800000  0.93200000  1.0 0.120528577
H  H58  1  0.20100000  0.81800000  0.06800000  1.0 0.120528577
H  H59  1  0.29900000  0.18200000  0.56800000  1.0 0.120528577
H  H60  1  0.70100000  0.18200000  0.43200000  1.0 0.120528577
H  H61  1  0.20100000  0.18200000  0.06800000  1.0 0.120528577
H  H62  1  0.79900000  0.18200000  0.93200000  1.0 0.120528577
H  H63  1  0.70100000  0.81800000  0.43200000  1.0 0.120528577
H  H64  1  0.29900000  0.81800000  0.56800000  1.0 0.120528577
H  H65  1  0.69100000  0.00000000  0.17400000  1.0 0.1378305537
H  H66  1  0.30900000  0.00000000  0.82600000  1.0 0.1378305537
H  H67  1  0.19100000  0.00000000  0.32600000  1.0 0.1378305537
H  H68  1  0.80900000  0.00000000  0.67400000  1.0 0.1378305537
H  H69  1  0.57890000  0.61730000  0.04320000  1.0 0.0818740576
H  H70  1  0.42110000  0.61730000  0.95680000  1.0 0.0818740576
H  H71  1  0.07890000  0.38270000  0.45680000  1.0 0.0818740576
H  H72  1  0.92110000  0.38270000  0.54320000  1.0 0.0818740576
H  H73  1  0.42110000  0.38270000  0.95680000  1.0 0.0818740576
H  H74  1  0.57890000  0.38270000  0.04320000  1.0 0.0818740576
H  H75  1  0.92110000  0.61730000  0.54320000  1.0 0.0818740576
H  H76  1  0.07890000  0.61730000  0.45680000  1.0 0.0818740576
H  H77  1  0.77610000  0.70330000  0.87650000  1.0 0.0995522522
H  H78  1  0.22390000  0.70330000  0.12350000  1.0 0.0995522522
H  H79  1  0.27610000  0.29670000  0.62350000  1.0 0.0995522522
H  H80  1  0.72390000  0.29670000  0.37650000  1.0 0.0995522522
H  H81  1  0.22390000  0.29670000  0.12350000  1.0 0.0995522522
H  H82  1  0.77610000  0.29670000  0.87650000  1.0 0.0995522522
H  H83  1  0.72390000  0.70330000  0.37650000  1.0 0.0995522522
H  H84  1  0.27610000  0.70330000  0.62350000  1.0 0.0995522522
H  H85  1  0.73820000  0.56540000  0.87600000  1.0 0.0414847605
H  H86  1  0.26180000  0.56540000  0.12400000  1.0 0.0451041257
H  H87  1  0.23820000  0.43460000  0.62400000  1.0 0.0414847605
H  H88  1  0.76180000  0.43460000  0.37600000  1.0 0.0414847605
H  H89  1  0.26180000  0.43460000  0.12400000  1.0 0.0451041257
H  H90  1  0.73820000  0.43460000  0.87600000  1.0 0.0414847605
H  H91  1  0.76180000  0.56540000  0.37600000  1.0 0.0451041257
H  H92  1  0.23820000  0.56540000  0.62400000  1.0 0.0451041257
H  H93  1  0.59730000  0.73790000  0.09120000  1.0 0.0818740576
H  H94  1  0.40270000  0.73790000  0.90880000  1.0 0.0818740576
H  H95  1  0.09730000  0.26210000  0.40880000  1.0 0.0818740576
H  H96  1  0.90270000  0.26210000  0.59120000  1.0 0.0818740576
H  H97  1  0.40270000  0.26210000  0.90880000  1.0 0.0818740576
H  H98  1  0.59730000  0.26210000  0.09120000  1.0 0.0818740576
H  H99  1  0.90270000  0.73790000  0.59120000  1.0 0.0818740576
H  H100  1  0.09730000  0.73790000  0.40880000  1.0 0.0818740576
H  H101  1  0.60900000  0.57100000  0.91410000  1.0 0.089695735
H  H102  1  0.39100000  0.57100000  0.08590000  1.0 0.089695735
H  H103  1  0.10900000  0.42900000  0.58590000  1.0 0.089695735
H  H104  1  0.89100000  0.42900000  0.41410000  1.0 0.089695735
H  H105  1  0.39100000  0.42900000  0.08590000  1.0 0.089695735
H  H106  1  0.60900000  0.42900000  0.91410000  1.0 0.089695735
H  H107  1  0.89100000  0.57100000  0.41410000  1.0 0.089695735
H  H108  1  0.10900000  0.57100000  0.58590000  1.0 0.089695735
C  C1  1  0.75160000  0.93190000  0.24410000  1.0 -0.1327590066
C  C2  1  0.24840000  0.93190000  0.75590000  1.0 -0.1327590066
C  C3  1  0.25160000  0.06810000  0.25590000  1.0 -0.1327590066
C  C4  1  0.74840000  0.06810000  0.74410000  1.0 -0.1327590066
C  C5  1  0.24840000  0.06810000  0.75590000  1.0 -0.1327590066
C  C6  1  0.75160000  0.06810000  0.24410000  1.0 -0.1327590066
C  C7  1  0.74840000  0.93190000  0.74410000  1.0 -0.1327590066
C  C8  1  0.25160000  0.93190000  0.25590000  1.0 -0.1327590066
C  C9  1  0.73200000  0.00000000  0.21150000  1.0 -0.0515431859
C  C10  1  0.26800000  0.00000000  0.78850000  1.0 -0.0515431859
C  C11  1  0.23200000  0.00000000  0.28850000  1.0 -0.0515431859
C  C12  1  0.76800000  0.00000000  0.71150000  1.0 -0.0515431859
C  C13  1  0.79170000  0.93230000  0.31100000  1.0 -0.0515431859
C  C14  1  0.20830000  0.93230000  0.68900000  1.0 -0.0515431859
C  C15  1  0.29170000  0.06770000  0.18900000  1.0 -0.0515431859
C  C16  1  0.70830000  0.06770000  0.81100000  1.0 -0.0515431859
C  C17  1  0.20830000  0.06770000  0.68900000  1.0 -0.0515431859
C  C18  1  0.79170000  0.06770000  0.31100000  1.0 -0.0515431859
C  C19  1  0.70830000  0.93230000  0.81100000  1.0 -0.0515431859
C  C20  1  0.29170000  0.93230000  0.18900000  1.0 -0.0515431859
C  C21  1  0.81330000  0.00000000  0.34390000  1.0 -0.1012772767
C  C22  1  0.18670000  0.00000000  0.65610000  1.0 -0.1012772767
C  C23  1  0.31330000  0.00000000  0.15610000  1.0 -0.1012772767
C  C24  1  0.68670000  0.00000000  0.84390000  1.0 -0.1012772767
C  C25  1  0.76500000  0.65460000  0.03910000  1.0 -0.043291997
C  C26  1  0.23500000  0.65460000  0.96090000  1.0 -0.043291997
C  C27  1  0.26500000  0.34540000  0.46090000  1.0 -0.043291997
C  C28  1  0.73500000  0.34540000  0.53910000  1.0 -0.043291997
C  C29  1  0.23500000  0.34540000  0.96090000  1.0 -0.043291997
C  C30  1  0.76500000  0.34540000  0.03910000  1.0 -0.043291997
C  C31  1  0.73500000  0.65460000  0.53910000  1.0 -0.043291997
C  C32  1  0.26500000  0.65460000  0.46090000  1.0 -0.043291997
C  C33  1  0.84340000  0.64410000  0.97970000  1.0 0.0414847605
C  C34  1  0.15660000  0.64410000  0.02030000  1.0 0.0414847605
C  C35  1  0.34340000  0.35590000  0.52030000  1.0 0.0414847605
C  C36  1  0.65660000  0.35590000  0.47970000  1.0 0.0414847605
C  C37  1  0.15660000  0.35590000  0.02030000  1.0 0.0414847605
C  C38  1  0.84340000  0.35590000  0.97970000  1.0 0.0414847605
C  C39  1  0.65660000  0.64410000  0.47970000  1.0 0.0414847605
C  C40  1  0.34340000  0.64410000  0.52030000  1.0 0.0414847605
C  C41  1  0.86000000  0.70670000  0.93980000  1.0 -0.0515431859
C  C42  1  0.14000000  0.70670000  0.06020000  1.0 -0.0515431859
C  C43  1  0.36000000  0.29330000  0.56020000  1.0 -0.0515431859
C  C44  1  0.64000000  0.29330000  0.43980000  1.0 -0.0515431859
C  C45  1  0.14000000  0.29330000  0.06020000  1.0 -0.0515431859
C  C46  1  0.86000000  0.29330000  0.93980000  1.0 -0.0515431859
C  C47  1  0.64000000  0.70670000  0.43980000  1.0 -0.0515431859
C  C48  1  0.36000000  0.70670000  0.56020000  1.0 -0.0515431859
C  C49  1  0.91400000  0.57020000  0.95430000  1.0 -0.1913017685
C  C50  1  0.08600000  0.57020000  0.04570000  1.0 -0.1913017685
C  C51  1  0.41400000  0.42980000  0.54570000  1.0 -0.1913017685
C  C52  1  0.58600000  0.42980000  0.45430000  1.0 -0.1913017685
C  C53  1  0.08600000  0.42980000  0.04570000  1.0 -0.1913017685
C  C54  1  0.91400000  0.42980000  0.95430000  1.0 -0.1913017685
C  C55  1  0.58600000  0.57020000  0.45430000  1.0 -0.1913017685
C  C56  1  0.41400000  0.57020000  0.54570000  1.0 -0.1913017685
C  C57  1  0.71700000  0.72260000  0.05730000  1.0 0.0184747276
C  C58  1  0.28300000  0.72260000  0.94270000  1.0 0.0184747276
C  C59  1  0.21700000  0.27740000  0.44270000  1.0 0.0184747276
C  C60  1  0.78300000  0.27740000  0.55730000  1.0 0.0184747276
C  C61  1  0.28300000  0.27740000  0.94270000  1.0 0.0184747276
C  C62  1  0.71700000  0.27740000  0.05730000  1.0 0.0184747276
C  C63  1  0.78300000  0.72260000  0.55730000  1.0 0.0184747276
C  C64  1  0.21700000  0.72260000  0.44270000  1.0 0.0184747276
C  C65  1  0.83900000  0.50000000  0.98790000  1.0 -0.0744918006
C  C66  1  0.16100000  0.50000000  0.01210000  1.0 -0.0744918006
C  C67  1  0.33900000  0.50000000  0.51210000  1.0 -0.0744918006
C  C68  1  0.66100000  0.50000000  0.48790000  1.0 -0.0744918006
C  C69  1  0.77950000  0.77600000  0.95740000  1.0 0.0184747276
C  C70  1  0.22050000  0.77600000  0.04260000  1.0 0.0184747276
C  C71  1  0.27950000  0.22400000  0.54260000  1.0 0.0184747276
C  C72  1  0.72050000  0.22400000  0.45740000  1.0 0.0184747276
C  C73  1  0.22050000  0.22400000  0.04260000  1.0 0.0184747276
C  C74  1  0.77950000  0.22400000  0.95740000  1.0 0.0184747276
C  C75  1  0.72050000  0.77600000  0.45740000  1.0 0.0184747276
C  C76  1  0.27950000  0.77600000  0.54260000  1.0 0.0184747276
C  C77  1  0.68300000  0.50000000  0.96500000  1.0 -0.1557497548
C  C78  1  0.31700000  0.50000000  0.03500000  1.0 -0.1483868378
C  C79  1  0.18300000  0.50000000  0.53500000  1.0 -0.1483868378
C  C80  1  0.81700000  0.50000000  0.46500000  1.0 -0.1483868378
C  C81  1  0.63200000  0.65770000  0.01970000  1.0 -0.0774370309
C  C82  1  0.36800000  0.65770000  0.98030000  1.0 -0.0774370309
C  C83  1  0.13200000  0.34230000  0.48030000  1.0 -0.0774370309
C  C84  1  0.86800000  0.34230000  0.51970000  1.0 -0.0774370309
C  C85  1  0.36800000  0.34230000  0.98030000  1.0 -0.0774370309
C  C86  1  0.63200000  0.34230000  0.01970000  1.0 -0.0774370309
C  C87  1  0.86800000  0.65770000  0.51970000  1.0 -0.0774370309
C  C88  1  0.13200000  0.65770000  0.48030000  1.0 -0.0774370309
C  C89  1  0.69700000  0.64330000  0.95660000  1.0 0.0184747276
C  C90  1  0.30300000  0.64330000  0.04340000  1.0 0.0184747276
C  C91  1  0.19700000  0.35670000  0.54340000  1.0 0.0184747276
C  C92  1  0.80300000  0.35670000  0.45660000  1.0 0.0184747276
C  C93  1  0.30300000  0.35670000  0.04340000  1.0 0.0184747276
C  C94  1  0.69700000  0.35670000  0.95660000  1.0 0.0184747276
C  C95  1  0.80300000  0.64330000  0.45660000  1.0 0.0184747276
C  C96  1  0.19700000  0.64330000  0.54340000  1.0 0.0184747276
C  C97  1  0.75500000  0.70570000  0.92290000  1.0 -0.0515431859
C  C98  1  0.24500000  0.70570000  0.07710000  1.0 -0.0515431859
C  C99  1  0.25500000  0.29430000  0.57710000  1.0 -0.0515431859
C  C100  1  0.74500000  0.29430000  0.42290000  1.0 -0.0515431859
C  C101  1  0.24500000  0.29430000  0.07710000  1.0 -0.0515431859
C  C102  1  0.75500000  0.29430000  0.92290000  1.0 -0.0515431859
C  C103  1  0.74500000  0.70570000  0.42290000  1.0 -0.0515431859
C  C104  1  0.25500000  0.70570000  0.57710000  1.0 -0.0515431859
C  C105  1  0.72100000  0.56870000  0.92260000  1.0 -0.1483868378
C  C106  1  0.27900000  0.56870000  0.07740000  1.0 -0.1483868378
C  C107  1  0.22100000  0.43130000  0.57740000  1.0 -0.1483868378
C  C108  1  0.77900000  0.43130000  0.42260000  1.0 -0.1483868378
C  C109  1  0.27900000  0.43130000  0.07740000  1.0 -0.1483868378
C  C110  1  0.72100000  0.43130000  0.92260000  1.0 -0.1483868378
C  C111  1  0.77900000  0.56870000  0.42260000  1.0 -0.1483868378
C  C112  1  0.22100000  0.56870000  0.57740000  1.0 -0.1483868378
C  C113  1  0.64100000  0.73060000  0.04770000  1.0 0.0414847605
C  C114  1  0.35900000  0.73060000  0.95230000  1.0 0.0414847605
C  C115  1  0.14100000  0.26940000  0.45230000  1.0 0.0414847605
C  C116  1  0.85900000  0.26940000  0.54770000  1.0 0.0451041257
C  C117  1  0.35900000  0.26940000  0.95230000  1.0 0.0414847605
C  C118  1  0.64100000  0.26940000  0.04770000  1.0 0.0414847605
C  C119  1  0.85900000  0.73060000  0.54770000  1.0 0.0414847605
C  C120  1  0.14100000  0.73060000  0.45230000  1.0 0.0414847605
N  N1  1  0.71040000  0.78750000  0.01700000  1.0 -0.1913017685
N  N2  1  0.28960000  0.78750000  0.98300000  1.0 -0.1913017685
N  N3  1  0.21040000  0.21250000  0.48300000  1.0 -0.1913017685
N  N4  1  0.78960000  0.21250000  0.51700000  1.0 -0.1913017685
N  N5  1  0.28960000  0.21250000  0.98300000  1.0 -0.1913017685
N  N6  1  0.71040000  0.21250000  0.01700000  1.0 -0.1913017685
N  N7  1  0.78960000  0.78750000  0.51700000  1.0 -0.1913017685
N  N8  1  0.21040000  0.78750000  0.48300000  1.0 -0.1913017685
O  O1  1  0.63080000  0.86097000  0.13714000  1.0 -0.7420889365
O  O2  1  0.36920000  0.86097000  0.86286000  1.0 -0.745107578
O  O3  1  0.13080000  0.13903000  0.36286000  1.0 -0.7420889365
O  O4  1  0.86920000  0.13903000  0.63714000  1.0 -0.7420889365
O  O5  1  0.36920000  0.13903000  0.86286000  1.0 -0.7420889365
O  O6  1  0.63080000  0.13903000  0.13714000  1.0 -0.7420889365
O  O7  1  0.86920000  0.86097000  0.63714000  1.0 -0.7420889365
O  O8  1  0.13080000  0.86097000  0.36286000  1.0 -0.7420889365
O  O9  1  0.91160000  0.82165000  0.17710000  1.0 -0.6398384066
O  O10  1  0.08840000  0.82165000  0.82290000  1.0 -0.6398384066
O  O11  1  0.41160000  0.17835000  0.32290000  1.0 -0.6398384066
O  O12  1  0.58840000  0.17835000  0.67710000  1.0 -0.6398384066
O  O13  1  0.08840000  0.17835000  0.82290000  1.0 -0.6398384066
O  O14  1  0.91160000  0.17835000  0.17710000  1.0 -0.6398384066
O  O15  1  0.58840000  0.82165000  0.67710000  1.0 -0.6398384066
O  O16  1  0.41160000  0.82165000  0.32290000  1.0 -0.6398384066
O  O17  1  0.65050000  0.78660000  0.24365000  1.0 -0.7420889365
O  O18  1  0.34950000  0.78660000  0.75635000  1.0 -0.7420889365
O  O19  1  0.15050000  0.21340000  0.25635000  1.0 -0.7420889365
O  O20  1  0.84950000  0.21340000  0.74365000  1.0 -0.7420889365
O  O21  1  0.34950000  0.21340000  0.75635000  1.0 -0.7420889365
O  O22  1  0.65050000  0.21340000  0.24365000  1.0 -0.7420889365
O  O23  1  0.84950000  0.78660000  0.74365000  1.0 -0.7420889365
O  O24  1  0.15050000  0.78660000  0.25635000  1.0 -0.7420889365
O  O25  1  0.81700000  0.07230000  0.45871000  1.0 -0.7580866682
O  O26  1  0.18300000  0.07230000  0.54129000  1.0 -0.7580866682
O  O27  1  0.31700000  0.92770000  0.04129000  1.0 -0.7580866682
O  O28  1  0.68300000  0.92770000  0.95871000  1.0 -0.7580866682
O  O29  1  0.18300000  0.92770000  0.54129000  1.0 -0.7580866682
O  O30  1  0.81700000  0.92770000  0.45871000  1.0 -0.7580866682
O  O31  1  0.68300000  0.07230000  0.95871000  1.0 -0.7580866682
O  O32  1  0.31700000  0.07230000  0.04129000  1.0 -0.7580866682
O  O33  1  0.07560000  0.00000000  0.42993000  1.0 -0.7129405903
O  O34  1  0.92440000  0.00000000  0.57007000  1.0 -0.7129405903
O  O35  1  0.57560000  0.00000000  0.07007000  1.0 -0.7129405903
O  O36  1  0.42440000  0.00000000  0.92993000  1.0 -0.7129405903
