# DDEC6 charges by PACMAN v1.1 (https://github.com/mtap-research/PACMAN-charge/)
data_2006[V][bpq]3[ASR]4
_chemical_formula_sum              "V4 H16 C32 O20"
_cell_length_a       6.7858
_cell_length_b       12.618
_cell_length_c       17.086
_cell_angle_alpha    90
_cell_angle_beta     90
_cell_angle_gamma    90

_symmetry_space_group_name_H-M    "P 1"
_symmetry_Int_Tables_number       1

loop_
  _symmetry_equiv_pos_as_xyz
  'x, y, z'

loop_
  _atom_site_type_symbol
  _atom_site_label
  _atom_site_symmetry_multiplicity
  _atom_site_fract_x
  _atom_site_fract_y
  _atom_site_fract_z
  _atom_site_occupancy
  _atom_site_charge
V   V1        1.0  0.05886  0.73460  0.99926  1.0000 1.8095791986
V   V2        1.0  0.44114  0.26540  0.49926  1.0000 1.8095791986
V   V3        1.0  0.94114  0.23460  0.50074  1.0000 1.8095791986
V   V4        1.0  0.55886  0.76540  0.00074  1.0000 1.8095791986
H   H1        1.0  0.05050  0.53640  0.80560  1.0000 0.1301598003
H   H2        1.0  0.44950  0.46360  0.30560  1.0000 0.1301598003
H   H3        1.0  0.94950  0.03640  0.69440  1.0000 0.1301598003
H   H4        1.0  0.55050  0.96360  0.19440  1.0000 0.1301598003
H   H5        1.0  0.45470  0.49550  0.67670  1.0000 0.1301598003
H   H6        1.0  0.04530  0.50450  0.17670  1.0000 0.1301598003
H   H7        1.0  0.54530  0.99550  0.82330  1.0000 0.1301598003
H   H8        1.0  0.95470  0.00450  0.32330  1.0000 0.1301598003
H   H9        1.0  0.46980  0.59630  0.78890  1.0000 0.1301598003
H   H10       1.0  0.03020  0.40370  0.28890  1.0000 0.1301598003
H   H11       1.0  0.53020  0.09630  0.71110  1.0000 0.1301598003
H   H12       1.0  0.96980  0.90370  0.21110  1.0000 0.1301598003
H   H13       1.0  0.03150  0.43450  0.69210  1.0000 0.1301598003
H   H14       1.0  0.46850  0.56550  0.19210  1.0000 0.1301598003
H   H15       1.0  0.96850  0.93450  0.80790  1.0000 0.1301598003
H   H16       1.0  0.53150  0.06550  0.30790  1.0000 0.1301598003
C   C1        1.0  0.76070  0.57440  0.80930  1.0000 -0.0254254186
C   C2        1.0  0.73930  0.42560  0.30930  1.0000 -0.0254254186
C   C3        1.0  0.23930  0.07440  0.69070  1.0000 -0.0254254186
C   C4        1.0  0.26070  0.92560  0.19070  1.0000 -0.0254254186
C   C5        1.0  0.93050  0.52750  0.78010  1.0000 -0.1069357382
C   C6        1.0  0.56950  0.47250  0.28010  1.0000 -0.1069357382
C   C7        1.0  0.06950  0.02750  0.71990  1.0000 -0.1069357382
C   C8        1.0  0.43050  0.97250  0.21990  1.0000 -0.1069357382
C   C9        1.0  0.77260  0.63750  0.88260  1.0000 0.6193649074
C   C10       1.0  0.72740  0.36250  0.38260  1.0000 0.6193649074
C   C11       1.0  0.22740  0.13750  0.61740  1.0000 0.6193649074
C   C12       1.0  0.27260  0.86250  0.11740  1.0000 0.6193649074
C   C13       1.0  0.57440  0.50330  0.70260  1.0000 -0.1069357382
C   C14       1.0  0.92560  0.49670  0.20260  1.0000 -0.1069357382
C   C15       1.0  0.42560  0.00330  0.79740  1.0000 -0.1069357382
C   C16       1.0  0.07440  0.99670  0.29740  1.0000 -0.1069357382
C   C17       1.0  0.58270  0.56340  0.76990  1.0000 -0.0993915895
C   C18       1.0  0.91730  0.43660  0.26990  1.0000 -0.0993915895
C   C19       1.0  0.41730  0.06340  0.73010  1.0000 -0.0993915895
C   C20       1.0  0.08270  0.93660  0.23010  1.0000 -0.0993915895
C   C21       1.0  0.73970  0.45500  0.67320  1.0000 -0.0254254186
C   C22       1.0  0.76030  0.54500  0.17320  1.0000 -0.0254254186
C   C23       1.0  0.26030  0.95500  0.82680  1.0000 -0.0254254186
C   C24       1.0  0.23970  0.04500  0.32680  1.0000 -0.0254254186
C   C25       1.0  0.91900  0.46700  0.71190  1.0000 -0.0993915895
C   C26       1.0  0.58100  0.53300  0.21190  1.0000 -0.0993915895
C   C27       1.0  0.08100  0.96700  0.78810  1.0000 -0.0993915895
C   C28       1.0  0.41900  0.03300  0.28810  1.0000 -0.0993915895
C   C29       1.0  0.72980  0.38460  0.60320  1.0000 0.6193649074
C   C30       1.0  0.77020  0.61540  0.10320  1.0000 0.6193649074
C   C31       1.0  0.27020  0.88460  0.89680  1.0000 0.6193649074
C   C32       1.0  0.22980  0.11540  0.39680  1.0000 0.6193649074
O   O1        1.0  0.77760  0.81466  0.00396  1.0000 -0.7484055111
O   O2        1.0  0.72240  0.18534  0.50396  1.0000 -0.7484055111
O   O3        1.0  0.22240  0.31466  0.49604  1.0000 -0.7484055111
O   O4        1.0  0.27760  0.68534  0.99604  1.0000 -0.7484055111
O   O5        1.0  0.93800  0.65510  0.91167  1.0000 -0.5876400122
O   O6        1.0  0.56200  0.34490  0.41167  1.0000 -0.5876400122
O   O7        1.0  0.06200  0.15510  0.58833  1.0000 -0.5876400122
O   O8        1.0  0.43800  0.84490  0.08833  1.0000 -0.5876400122
O   O9        1.0  0.55900  0.36500  0.57613  1.0000 -0.6058624932
O   O10       1.0  0.94100  0.63500  0.07613  1.0000 -0.6049980471
O   O11       1.0  0.44100  0.86500  0.92387  1.0000 -0.6049980471
O   O12       1.0  0.05900  0.13500  0.42387  1.0000 -0.6049980471
O   O13       1.0  0.89040  0.34950  0.57684  1.0000 -0.5765430281
O   O14       1.0  0.60960  0.65050  0.07684  1.0000 -0.5765430281
O   O15       1.0  0.10960  0.84950  0.92316  1.0000 -0.5765430281
O   O16       1.0  0.39040  0.15050  0.42316  1.0000 -0.5765430281
O   O17       1.0  0.60980  0.67010  0.91070  1.0000 -0.5876400122
O   O18       1.0  0.89020  0.32990  0.41070  1.0000 -0.5876400122
O   O19       1.0  0.39020  0.17010  0.58930  1.0000 -0.5876400122
O   O20       1.0  0.10980  0.82990  0.08930  1.0000 -0.5876400122
