# DDEC6 charges by PACMAN v1.1 (https://github.com/mtap-research/PACMAN-charge/)
data_2007[Zn][nan]3[ASR]10
_chemical_formula_sum              "Zn6 H48 C84 N4 O24"
_cell_length_a       14.8112
_cell_length_b       14.8112
_cell_length_c       16.5589
_cell_angle_alpha    77.1739
_cell_angle_beta     102.826
_cell_angle_gamma    64.0062

_symmetry_space_group_name_H-M    "P 1"
_symmetry_Int_Tables_number       1

loop_
  _symmetry_equiv_pos_as_xyz
  'x, y, z'

loop_
  _atom_site_type_symbol
  _atom_site_label
  _atom_site_symmetry_multiplicity
  _atom_site_fract_x
  _atom_site_fract_y
  _atom_site_fract_z
  _atom_site_occupancy
  _atom_site_charge
Zn  Zn1       1.0  0.43438  0.95278  0.93619  1.0000 0.9669206803
Zn  Zn2       1.0  0.95278  0.43438  0.56381  1.0000 0.9669206803
Zn  Zn3       1.0  0.56562  0.04722  0.06381  1.0000 0.9669206803
Zn  Zn4       1.0  0.04722  0.56562  0.43619  1.0000 0.9669206803
Zn  Zn5       1.0  0.17070  0.17070  0.75000  1.0000 0.9337307875
Zn  Zn6       1.0  0.82930  0.82930  0.25000  1.0000 0.9337307875
H   H1        1.0  0.04500  0.00480  0.83590  1.0000 0.1212229862
H   H2        1.0  0.00480  0.04500  0.66410  1.0000 0.1212229862
H   H3        1.0  0.95500  0.99520  0.16410  1.0000 0.1212229862
H   H4        1.0  0.99520  0.95500  0.33590  1.0000 0.1212229862
H   H5        1.0  0.95970  0.90810  0.84900  1.0000 0.1212229862
H   H6        1.0  0.90810  0.95970  0.65100  1.0000 0.1212229862
H   H7        1.0  0.04030  0.09190  0.15100  1.0000 0.1212229862
H   H8        1.0  0.09190  0.04030  0.34900  1.0000 0.1212229862
H   H9        1.0  0.24290  0.63450  0.92040  1.0000 0.1300765624
H   H10       1.0  0.63450  0.24290  0.57960  1.0000 0.1300765624
H   H11       1.0  0.75710  0.36550  0.07960  1.0000 0.1300765624
H   H12       1.0  0.36550  0.75710  0.42040  1.0000 0.1300765624
H   H13       1.0  0.32640  0.73340  0.90460  1.0000 0.1212229862
H   H14       1.0  0.73340  0.32640  0.59540  1.0000 0.1212229862
H   H15       1.0  0.67360  0.26660  0.09540  1.0000 0.1212229862
H   H16       1.0  0.26660  0.67360  0.40460  1.0000 0.1212229862
H   H17       1.0  0.10530  0.37230  0.91300  1.0000 0.1112553915
H   H18       1.0  0.37230  0.10530  0.58700  1.0000 0.1112553915
H   H19       1.0  0.89470  0.62770  0.08700  1.0000 0.1112553915
H   H20       1.0  0.62770  0.89470  0.41300  1.0000 0.1112553915
H   H21       1.0  0.07730  0.50750  0.97110  1.0000 0.1300765624
H   H22       1.0  0.50750  0.07730  0.52890  1.0000 0.1300765624
H   H23       1.0  0.92270  0.49250  0.02890  1.0000 0.1300765624
H   H24       1.0  0.49250  0.92270  0.47110  1.0000 0.1300765624
H   H25       1.0  0.06090  0.69490  0.74560  1.0000 0.1300765624
H   H26       1.0  0.69490  0.06090  0.75440  1.0000 0.1300765624
H   H27       1.0  0.93910  0.30510  0.25440  1.0000 0.1300765624
H   H28       1.0  0.30510  0.93910  0.24560  1.0000 0.1300765624
H   H29       1.0  0.08580  0.56200  0.68730  1.0000 0.1212229862
H   H30       1.0  0.56200  0.08580  0.81270  1.0000 0.1212229862
H   H31       1.0  0.91420  0.43800  0.31270  1.0000 0.1212229862
H   H32       1.0  0.43800  0.91420  0.18730  1.0000 0.1212229862
H   H33       1.0  0.83630  0.87710  0.03390  1.0000 0.1300765624
H   H34       1.0  0.87710  0.83630  0.46610  1.0000 0.1300765624
H   H35       1.0  0.16370  0.12290  0.96610  1.0000 0.1300765624
H   H36       1.0  0.12290  0.16370  0.53390  1.0000 0.1300765624
H   H37       1.0  0.99730  0.79370  0.01190  1.0000 0.1300765624
H   H38       1.0  0.79370  0.99730  0.48810  1.0000 0.1300765624
H   H39       1.0  0.00270  0.20630  0.98810  1.0000 0.1300765624
H   H40       1.0  0.20630  0.00270  0.51190  1.0000 0.1300765624
H   H41       1.0  0.86190  0.70070  0.83430  1.0000 0.1212229862
H   H42       1.0  0.70070  0.86190  0.66570  1.0000 0.1212229862
H   H43       1.0  0.13810  0.29930  0.16570  1.0000 0.1212229862
H   H44       1.0  0.29930  0.13810  0.33430  1.0000 0.1212229862
H   H45       1.0  0.70440  0.77780  0.86170  1.0000 0.1212229862
H   H46       1.0  0.77780  0.70440  0.63830  1.0000 0.1212229862
H   H47       1.0  0.29560  0.22220  0.13830  1.0000 0.1212229862
H   H48       1.0  0.22220  0.29560  0.36170  1.0000 0.1212229862
C   C1        1.0  0.24702  0.94562  0.86190  1.0000 0.5947244232
C   C2        1.0  0.94562  0.24702  0.63810  1.0000 0.5947244232
C   C3        1.0  0.75298  0.05438  0.13810  1.0000 0.5947244232
C   C4        1.0  0.05438  0.75298  0.36190  1.0000 0.5985178893
C   C5        1.0  0.19496  0.87936  0.86960  1.0000 -0.0512817959
C   C6        1.0  0.87936  0.19496  0.63040  1.0000 -0.0512817959
C   C7        1.0  0.80504  0.12064  0.13040  1.0000 -0.0512817959
C   C8        1.0  0.12064  0.80504  0.36960  1.0000 -0.0512817959
C   C9        1.0  0.08482  0.93022  0.85290  1.0000 -0.0817047451
C   C10       1.0  0.93022  0.08482  0.64710  1.0000 -0.0817047451
C   C11       1.0  0.91518  0.06978  0.14710  1.0000 -0.0817047451
C   C12       1.0  0.06978  0.91518  0.35290  1.0000 -0.0817047451
C   C13       1.0  0.03350  0.87230  0.86110  1.0000 -0.2009923543
C   C14       1.0  0.87230  0.03350  0.63890  1.0000 -0.2009923543
C   C15       1.0  0.96650  0.12770  0.13890  1.0000 -0.2009923543
C   C16       1.0  0.12770  0.96650  0.36110  1.0000 -0.2009923543
C   C17       1.0  0.09190  0.76010  0.88760  1.0000 0.1954840486
C   C18       1.0  0.76010  0.09190  0.61240  1.0000 0.1943108504
C   C19       1.0  0.90810  0.23990  0.11240  1.0000 0.1943108504
C   C20       1.0  0.23990  0.90810  0.38760  1.0000 0.1954840486
C   C21       1.0  0.20281  0.70901  0.90350  1.0000 -0.1895035189
C   C22       1.0  0.70901  0.20281  0.59650  1.0000 -0.1895035189
C   C23       1.0  0.79719  0.29099  0.09650  1.0000 -0.1895035189
C   C24       1.0  0.29099  0.79719  0.40350  1.0000 -0.1895035189
C   C25       1.0  0.25297  0.76837  0.89420  1.0000 -0.0817047451
C   C26       1.0  0.76837  0.25297  0.60580  1.0000 -0.0817047451
C   C27       1.0  0.74703  0.23163  0.10580  1.0000 -0.0817047451
C   C28       1.0  0.23163  0.74703  0.39420  1.0000 -0.0817047451
C   C29       1.0  0.11023  0.36843  0.75440  1.0000 0.5816424553
C   C30       1.0  0.36843  0.11023  0.74560  1.0000 0.5816424553
C   C31       1.0  0.88977  0.63157  0.24560  1.0000 0.5816424553
C   C32       1.0  0.63157  0.88977  0.25440  1.0000 0.5816424553
C   C33       1.0  0.09691  0.45391  0.79380  1.0000 -0.02687155
C   C34       1.0  0.45391  0.09691  0.70620  1.0000 -0.02687155
C   C35       1.0  0.90309  0.54609  0.20620  1.0000 -0.02687155
C   C36       1.0  0.54609  0.90309  0.29380  1.0000 -0.02687155
C   C37       1.0  0.09536  0.43736  0.87910  1.0000 -0.0817047451
C   C38       1.0  0.43736  0.09536  0.62090  1.0000 -0.0817047451
C   C39       1.0  0.90464  0.56264  0.12090  1.0000 -0.0817047451
C   C40       1.0  0.56264  0.90464  0.37910  1.0000 -0.0817047451
C   C41       1.0  0.07874  0.51854  0.91400  1.0000 -0.1895035189
C   C42       1.0  0.51854  0.07874  0.58600  1.0000 -0.1895035189
C   C43       1.0  0.92126  0.48146  0.08600  1.0000 -0.1895035189
C   C44       1.0  0.48146  0.92126  0.41400  1.0000 -0.1895035189
C   C45       1.0  0.06449  0.61529  0.86390  1.0000 0.1802745601
C   C46       1.0  0.61529  0.06449  0.63610  1.0000 0.1802745601
C   C47       1.0  0.93551  0.38471  0.13610  1.0000 0.1802745601
C   C48       1.0  0.38471  0.93551  0.36390  1.0000 0.1802745601
C   C49       1.0  0.06853  0.63073  0.77890  1.0000 -0.1895035189
C   C50       1.0  0.63073  0.06853  0.72110  1.0000 -0.1895035189
C   C51       1.0  0.93147  0.36927  0.22110  1.0000 -0.1895035189
C   C52       1.0  0.36927  0.93147  0.27890  1.0000 -0.1895035189
C   C53       1.0  0.08397  0.55097  0.74430  1.0000 -0.0817047451
C   C54       1.0  0.55097  0.08397  0.75570  1.0000 -0.0817047451
C   C55       1.0  0.91603  0.44903  0.25570  1.0000 -0.0817047451
C   C56       1.0  0.44903  0.91603  0.24430  1.0000 -0.0817047451
C   C57       1.0  0.64960  0.89320  0.96250  1.0000 0.5985178893
C   C58       1.0  0.89320  0.64960  0.53750  1.0000 0.5985178893
C   C59       1.0  0.35040  0.10680  0.03750  1.0000 0.5985178893
C   C60       1.0  0.10680  0.35040  0.46250  1.0000 0.5985178893
C   C61       1.0  0.75280  0.83800  0.94890  1.0000 -0.0602110094
C   C62       1.0  0.83800  0.75280  0.55110  1.0000 -0.0602110094
C   C63       1.0  0.24720  0.16200  0.05110  1.0000 -0.0602110094
C   C64       1.0  0.16200  0.24720  0.44890  1.0000 -0.0602110094
C   C65       1.0  0.84150  0.84150  0.99390  1.0000 -0.0671571391
C   C66       1.0  0.84150  0.84150  0.50610  1.0000 -0.0671571391
C   C67       1.0  0.15850  0.15850  0.00610  1.0000 -0.0671571391
C   C68       1.0  0.15850  0.15850  0.49390  1.0000 -0.0671571391
C   C69       1.0  0.93774  0.79274  0.98010  1.0000 -0.1895035189
C   C70       1.0  0.79274  0.93774  0.51990  1.0000 -0.1895035189
C   C71       1.0  0.06226  0.20726  0.01990  1.0000 -0.1895035189
C   C72       1.0  0.20726  0.06226  0.48010  1.0000 -0.1895035189
C   C73       1.0  0.94479  0.74179  0.91770  1.0000 0.1802745601
C   C74       1.0  0.74179  0.94479  0.58230  1.0000 0.1802745601
C   C75       1.0  0.05521  0.25821  0.08230  1.0000 0.1802745601
C   C76       1.0  0.25821  0.05521  0.41770  1.0000 0.1802745601
C   C77       1.0  0.85715  0.73615  0.87440  1.0000 -0.2009923543
C   C78       1.0  0.73615  0.85715  0.62560  1.0000 -0.2009923543
C   C79       1.0  0.14285  0.26385  0.12560  1.0000 -0.2009923543
C   C80       1.0  0.26385  0.14285  0.37440  1.0000 -0.2009923543
C   C81       1.0  0.76230  0.78310  0.89040  1.0000 -0.0852214033
C   C82       1.0  0.78310  0.76230  0.60960  1.0000 -0.0852214033
C   C83       1.0  0.23770  0.21690  0.10960  1.0000 -0.0817047451
C   C84       1.0  0.21690  0.23770  0.39040  1.0000 -0.0817047451
N   N1        1.0  0.04110  0.69970  0.89860  1.0000 -0.1786173219
N   N2        1.0  0.69970  0.04110  0.60140  1.0000 -0.1786173219
N   N3        1.0  0.95890  0.30030  0.10140  1.0000 -0.1786173219
N   N4        1.0  0.30030  0.95890  0.39860  1.0000 -0.1786173219
O   O1        1.0  0.18774  0.04554  0.83940  1.0000 -0.5490661124
O   O2        1.0  0.04554  0.18774  0.66060  1.0000 -0.5490661124
O   O3        1.0  0.81226  0.95446  0.16060  1.0000 -0.5490661124
O   O4        1.0  0.95446  0.81226  0.33940  1.0000 -0.5490661124
O   O5        1.0  0.34822  0.89742  0.88000  1.0000 -0.5490661124
O   O6        1.0  0.89742  0.34822  0.62000  1.0000 -0.5490661124
O   O7        1.0  0.65178  0.10258  0.12000  1.0000 -0.5490661124
O   O8        1.0  0.10258  0.65178  0.38000  1.0000 -0.5490661124
O   O9        1.0  0.13805  0.27765  0.80650  1.0000 -0.5220938707
O   O10       1.0  0.27765  0.13805  0.69350  1.0000 -0.5220938707
O   O11       1.0  0.86195  0.72235  0.19350  1.0000 -0.5220938707
O   O12       1.0  0.72235  0.86195  0.30650  1.0000 -0.5220938707
O   O13       1.0  0.09446  0.39006  0.67290  1.0000 -0.5715140412
O   O14       1.0  0.39006  0.09446  0.82710  1.0000 -0.5715140412
O   O15       1.0  0.90554  0.60994  0.32710  1.0000 -0.5715140412
O   O16       1.0  0.60994  0.90554  0.17290  1.0000 -0.5715140412
O   O17       1.0  0.64220  0.95280  0.00710  1.0000 -0.5715140412
O   O18       1.0  0.95280  0.64220  0.49290  1.0000 -0.5715140412
O   O19       1.0  0.35780  0.04720  0.99290  1.0000 -0.5715140412
O   O20       1.0  0.04720  0.35780  0.50710  1.0000 -0.5715140412
O   O21       1.0  0.57500  0.87980  0.92620  1.0000 -0.5363680656
O   O22       1.0  0.87980  0.57500  0.57380  1.0000 -0.5363680656
O   O23       1.0  0.42500  0.12020  0.07380  1.0000 -0.5363680656
O   O24       1.0  0.12020  0.42500  0.42620  1.0000 -0.5363680656
