# DDEC6 charges by PACMAN v1.1 (https://github.com/mtap-research/PACMAN-charge/)
data_2010[ZnPd][pts]3[ASR]1
_chemical_formula_sum              "Zn4 H64 Pd4 C96 N16 O32"
_cell_length_a       12.5566
_cell_length_b       12.5566
_cell_length_c       25.085
_cell_angle_alpha    90
_cell_angle_beta     90
_cell_angle_gamma    95.0511

_symmetry_space_group_name_H-M    "P 1"
_symmetry_Int_Tables_number       1

loop_
  _symmetry_equiv_pos_as_xyz
  'x, y, z'

loop_
  _atom_site_type_symbol
  _atom_site_label
  _atom_site_symmetry_multiplicity
  _atom_site_fract_x
  _atom_site_fract_y
  _atom_site_fract_z
  _atom_site_occupancy
  _atom_site_charge
Zn  Zn1       1.0  0.50000  0.00000  0.41248  1.0000 0.9176861468
Zn  Zn2       1.0  0.50000  0.00000  0.91248  1.0000 0.9176861468
Zn  Zn3       1.0  0.00000  0.50000  0.58752  1.0000 0.9176861468
Zn  Zn4       1.0  0.00000  0.50000  0.08752  1.0000 0.9176861468
H   H1        1.0  0.11520  0.12600  0.07640  1.0000 0.1124975617
H   H2        1.0  0.88480  0.87400  0.07640  1.0000 0.1124975617
H   H3        1.0  0.37400  0.38480  0.57640  1.0000 0.1124975617
H   H4        1.0  0.62600  0.61520  0.57640  1.0000 0.1124975617
H   H5        1.0  0.25010  0.10570  0.01480  1.0000 0.1408258529
H   H6        1.0  0.74990  0.89430  0.01480  1.0000 0.1408258529
H   H7        1.0  0.39430  0.24990  0.51480  1.0000 0.1408258529
H   H8        1.0  0.60570  0.75010  0.51480  1.0000 0.1408258529
H   H9        1.0  0.26140  0.80040  0.05930  1.0000 0.1589339832
H   H10       1.0  0.73860  0.19960  0.05930  1.0000 0.1589339832
H   H11       1.0  0.69960  0.23860  0.55930  1.0000 0.1589339832
H   H12       1.0  0.30040  0.76140  0.55930  1.0000 0.1589339832
H   H13       1.0  0.12710  0.82630  0.12330  1.0000 0.1164112269
H   H14       1.0  0.87290  0.17370  0.12330  1.0000 0.1164112269
H   H15       1.0  0.67370  0.37290  0.62330  1.0000 0.1164112269
H   H16       1.0  0.32630  0.62710  0.62330  1.0000 0.1164112269
H   H17       1.0  0.83520  0.86900  0.22320  1.0000 0.1033704589
H   H18       1.0  0.16480  0.13100  0.22320  1.0000 0.1033704589
H   H19       1.0  0.63100  0.66480  0.72320  1.0000 0.1033704589
H   H20       1.0  0.36900  0.33520  0.72320  1.0000 0.1033704589
H   H21       1.0  0.70530  0.89430  0.28770  1.0000 0.1462778943
H   H22       1.0  0.29470  0.10570  0.28770  1.0000 0.1462778943
H   H23       1.0  0.60570  0.79470  0.78770  1.0000 0.1462778943
H   H24       1.0  0.39430  0.20530  0.78770  1.0000 0.1462778943
H   H25       1.0  0.79980  0.20700  0.29130  1.0000 0.1408258529
H   H26       1.0  0.20020  0.79300  0.29130  1.0000 0.1408258529
H   H27       1.0  0.29300  0.70020  0.79130  1.0000 0.1408258529
H   H28       1.0  0.70700  0.29980  0.79130  1.0000 0.1408258529
H   H29       1.0  0.93160  0.17880  0.22760  1.0000 0.1124975617
H   H30       1.0  0.06840  0.82120  0.22760  1.0000 0.1124975617
H   H31       1.0  0.32120  0.56840  0.72760  1.0000 0.1124975617
H   H32       1.0  0.67880  0.43160  0.72760  1.0000 0.1124975617
H   H33       1.0  0.12600  0.11520  0.92360  1.0000 0.1124975617
H   H34       1.0  0.87400  0.88480  0.92360  1.0000 0.1124975617
H   H35       1.0  0.38480  0.37400  0.42360  1.0000 0.1124975617
H   H36       1.0  0.61520  0.62600  0.42360  1.0000 0.1124975617
H   H37       1.0  0.10570  0.25010  0.98520  1.0000 0.1408258529
H   H38       1.0  0.89430  0.74990  0.98520  1.0000 0.1408258529
H   H39       1.0  0.24990  0.39430  0.48520  1.0000 0.1408258529
H   H40       1.0  0.75010  0.60570  0.48520  1.0000 0.1408258529
H   H41       1.0  0.80040  0.26140  0.94070  1.0000 0.1589339832
H   H42       1.0  0.19960  0.73860  0.94070  1.0000 0.1589339832
H   H43       1.0  0.23860  0.69960  0.44070  1.0000 0.1589339832
H   H44       1.0  0.76140  0.30040  0.44070  1.0000 0.1589339832
H   H45       1.0  0.82630  0.12710  0.87670  1.0000 0.1164112269
H   H46       1.0  0.17370  0.87290  0.87670  1.0000 0.1164112269
H   H47       1.0  0.37290  0.67370  0.37670  1.0000 0.1164112269
H   H48       1.0  0.62710  0.32630  0.37670  1.0000 0.1164112269
H   H49       1.0  0.86900  0.83520  0.77680  1.0000 0.1033704589
H   H50       1.0  0.13100  0.16480  0.77680  1.0000 0.1033704589
H   H51       1.0  0.66480  0.63100  0.27680  1.0000 0.1033704589
H   H52       1.0  0.33520  0.36900  0.27680  1.0000 0.1033704589
H   H53       1.0  0.89430  0.70530  0.71230  1.0000 0.1462778943
H   H54       1.0  0.10570  0.29470  0.71230  1.0000 0.1462778943
H   H55       1.0  0.79470  0.60570  0.21230  1.0000 0.1462778943
H   H56       1.0  0.20530  0.39430  0.21230  1.0000 0.1462778943
H   H57       1.0  0.20700  0.79980  0.70870  1.0000 0.1408258529
H   H58       1.0  0.79300  0.20020  0.70870  1.0000 0.1408258529
H   H59       1.0  0.70020  0.29300  0.20870  1.0000 0.1408258529
H   H60       1.0  0.29980  0.70700  0.20870  1.0000 0.1408258529
H   H61       1.0  0.17880  0.93160  0.77240  1.0000 0.1124975617
H   H62       1.0  0.82120  0.06840  0.77240  1.0000 0.1124975617
H   H63       1.0  0.56840  0.32120  0.27240  1.0000 0.1124975617
H   H64       1.0  0.43160  0.67880  0.27240  1.0000 0.1124975617
Pd  Pd1       1.0  0.00000  0.00000  0.16192  1.0000 0.2620147514
Pd  Pd2       1.0  0.50000  0.50000  0.66192  1.0000 0.2620147514
Pd  Pd3       1.0  0.00000  0.00000  0.83808  1.0000 0.2620147514
Pd  Pd4       1.0  0.50000  0.50000  0.33808  1.0000 0.2620147514
C   C1        1.0  0.15230  0.88310  0.10030  1.0000 0.0764914295
C   C2        1.0  0.84770  0.11690  0.10030  1.0000 0.0764914295
C   C3        1.0  0.61690  0.34770  0.60030  1.0000 0.0764914295
C   C4        1.0  0.38310  0.65230  0.60030  1.0000 0.0764914295
C   C5        1.0  0.23240  0.86740  0.06220  1.0000 -0.1394754471
C   C6        1.0  0.76760  0.13260  0.06220  1.0000 -0.1394754471
C   C7        1.0  0.63260  0.26760  0.56220  1.0000 -0.1394754471
C   C8        1.0  0.36740  0.73240  0.56220  1.0000 -0.1394754471
C   C9        1.0  0.26700  0.95140  0.02910  1.0000 0.0343857804
C   C10       1.0  0.73300  0.04860  0.02910  1.0000 0.0343857804
C   C11       1.0  0.54860  0.23300  0.52910  1.0000 0.0343857804
C   C12       1.0  0.45140  0.76700  0.52910  1.0000 0.0343857804
C   C13       1.0  0.35170  0.93610  0.98760  1.0000 0.5367780152
C   C14       1.0  0.64830  0.06390  0.98760  1.0000 0.5367780152
C   C15       1.0  0.56390  0.14830  0.48760  1.0000 0.5367780152
C   C16       1.0  0.43610  0.85170  0.48760  1.0000 0.5367780152
C   C17       1.0  0.22460  0.04640  0.03620  1.0000 -0.1590791645
C   C18       1.0  0.77540  0.95360  0.03620  1.0000 -0.1590791645
C   C19       1.0  0.45360  0.27540  0.53620  1.0000 -0.1590791645
C   C20       1.0  0.54640  0.72460  0.53620  1.0000 -0.1590791645
C   C21       1.0  0.14520  0.05940  0.07320  1.0000 0.0514417604
C   C22       1.0  0.85480  0.94060  0.07320  1.0000 0.0514417604
C   C23       1.0  0.44060  0.35480  0.57320  1.0000 0.0514417604
C   C24       1.0  0.55940  0.64520  0.57320  1.0000 0.0514417604
C   C25       1.0  0.88360  0.12080  0.23930  1.0000 0.0620648144
C   C26       1.0  0.11640  0.87920  0.23930  1.0000 0.0620648144
C   C27       1.0  0.37920  0.61640  0.73930  1.0000 0.0620648144
C   C28       1.0  0.62080  0.38360  0.73930  1.0000 0.0620648144
C   C29       1.0  0.80620  0.13720  0.27780  1.0000 -0.151167566
C   C30       1.0  0.19380  0.86280  0.27780  1.0000 -0.151167566
C   C31       1.0  0.36280  0.69380  0.77780  1.0000 -0.151167566
C   C32       1.0  0.63720  0.30620  0.77780  1.0000 -0.151167566
C   C33       1.0  0.73840  0.05120  0.29640  1.0000 0.0188137359
C   C34       1.0  0.26160  0.94880  0.29640  1.0000 0.0188137359
C   C35       1.0  0.44880  0.76160  0.79640  1.0000 0.0188137359
C   C36       1.0  0.55120  0.23840  0.79640  1.0000 0.0188137359
C   C37       1.0  0.75090  0.95390  0.27570  1.0000 -0.151167566
C   C38       1.0  0.24910  0.04610  0.27570  1.0000 -0.151167566
C   C39       1.0  0.54610  0.74910  0.77570  1.0000 -0.151167566
C   C40       1.0  0.45390  0.25090  0.77570  1.0000 -0.151167566
C   C41       1.0  0.82710  0.93850  0.23660  1.0000 0.0514417604
C   C42       1.0  0.17290  0.06150  0.23660  1.0000 0.0514417604
C   C43       1.0  0.56150  0.67290  0.73660  1.0000 0.0514417604
C   C44       1.0  0.43850  0.32710  0.73660  1.0000 0.0514417604
C   C45       1.0  0.65410  0.06830  0.33590  1.0000 0.5584816086
C   C46       1.0  0.34590  0.93170  0.33590  1.0000 0.5584816086
C   C47       1.0  0.43170  0.84590  0.83590  1.0000 0.5584816086
C   C48       1.0  0.56830  0.15410  0.83590  1.0000 0.5584816086
C   C49       1.0  0.88310  0.15230  0.89970  1.0000 0.0764914295
C   C50       1.0  0.11690  0.84770  0.89970  1.0000 0.0764914295
C   C51       1.0  0.34770  0.61690  0.39970  1.0000 0.0764914295
C   C52       1.0  0.65230  0.38310  0.39970  1.0000 0.0764914295
C   C53       1.0  0.86740  0.23240  0.93780  1.0000 -0.1394754471
C   C54       1.0  0.13260  0.76760  0.93780  1.0000 -0.1394754471
C   C55       1.0  0.26760  0.63260  0.43780  1.0000 -0.1394754471
C   C56       1.0  0.73240  0.36740  0.43780  1.0000 -0.1394754471
C   C57       1.0  0.95140  0.26700  0.97090  1.0000 0.0343857804
C   C58       1.0  0.04860  0.73300  0.97090  1.0000 0.0343857804
C   C59       1.0  0.23300  0.54860  0.47090  1.0000 0.0343857804
C   C60       1.0  0.76700  0.45140  0.47090  1.0000 0.0343857804
C   C61       1.0  0.93610  0.35170  0.01240  1.0000 0.5367780152
C   C62       1.0  0.06390  0.64830  0.01240  1.0000 0.5367780152
C   C63       1.0  0.14830  0.56390  0.51240  1.0000 0.5367780152
C   C64       1.0  0.85170  0.43610  0.51240  1.0000 0.5367780152
C   C65       1.0  0.04640  0.22460  0.96380  1.0000 -0.1590791645
C   C66       1.0  0.95360  0.77540  0.96380  1.0000 -0.1590791645
C   C67       1.0  0.27540  0.45360  0.46380  1.0000 -0.1590791645
C   C68       1.0  0.72460  0.54640  0.46380  1.0000 -0.1590791645
C   C69       1.0  0.05940  0.14520  0.92680  1.0000 0.0514417604
C   C70       1.0  0.94060  0.85480  0.92680  1.0000 0.0514417604
C   C71       1.0  0.35480  0.44060  0.42680  1.0000 0.0514417604
C   C72       1.0  0.64520  0.55940  0.42680  1.0000 0.0514417604
C   C73       1.0  0.12080  0.88360  0.76070  1.0000 0.0620648144
C   C74       1.0  0.87920  0.11640  0.76070  1.0000 0.0620648144
C   C75       1.0  0.61640  0.37920  0.26070  1.0000 0.0620648144
C   C76       1.0  0.38360  0.62080  0.26070  1.0000 0.0620648144
C   C77       1.0  0.13720  0.80620  0.72220  1.0000 -0.151167566
C   C78       1.0  0.86280  0.19380  0.72220  1.0000 -0.151167566
C   C79       1.0  0.69380  0.36280  0.22220  1.0000 -0.151167566
C   C80       1.0  0.30620  0.63720  0.22220  1.0000 -0.151167566
C   C81       1.0  0.05120  0.73840  0.70360  1.0000 0.0188137359
C   C82       1.0  0.94880  0.26160  0.70360  1.0000 0.0188137359
C   C83       1.0  0.76160  0.44880  0.20360  1.0000 0.0188137359
C   C84       1.0  0.23840  0.55120  0.20360  1.0000 0.0188137359
C   C85       1.0  0.95390  0.75090  0.72430  1.0000 -0.151167566
C   C86       1.0  0.04610  0.24910  0.72430  1.0000 -0.151167566
C   C87       1.0  0.74910  0.54610  0.22430  1.0000 -0.151167566
C   C88       1.0  0.25090  0.45390  0.22430  1.0000 -0.151167566
C   C89       1.0  0.93850  0.82710  0.76340  1.0000 0.0514417604
C   C90       1.0  0.06150  0.17290  0.76340  1.0000 0.0514417604
C   C91       1.0  0.67290  0.56150  0.26340  1.0000 0.0514417604
C   C92       1.0  0.32710  0.43850  0.26340  1.0000 0.0514417604
C   C93       1.0  0.06830  0.65410  0.66410  1.0000 0.5584816086
C   C94       1.0  0.93170  0.34590  0.66410  1.0000 0.5584816086
C   C95       1.0  0.84590  0.43170  0.16410  1.0000 0.5584816086
C   C96       1.0  0.15410  0.56830  0.16410  1.0000 0.5584816086
N   N1        1.0  0.89060  0.02240  0.21880  1.0000 -0.1394754471
N   N2        1.0  0.10940  0.97760  0.21880  1.0000 -0.1394754471
N   N3        1.0  0.47760  0.60940  0.71880  1.0000 -0.1394754471
N   N4        1.0  0.52240  0.39060  0.71880  1.0000 -0.1394754471
N   N5        1.0  0.11090  0.97750  0.10420  1.0000 -0.1590791645
N   N6        1.0  0.88910  0.02250  0.10420  1.0000 -0.1590791645
N   N7        1.0  0.52250  0.38910  0.60420  1.0000 -0.1590791645
N   N8        1.0  0.47750  0.61090  0.60420  1.0000 -0.1590791645
N   N9        1.0  0.02240  0.89060  0.78120  1.0000 -0.1394754471
N   N10       1.0  0.97760  0.10940  0.78120  1.0000 -0.1394754471
N   N11       1.0  0.60940  0.47760  0.28120  1.0000 -0.1394754471
N   N12       1.0  0.39060  0.52240  0.28120  1.0000 -0.1394754471
N   N13       1.0  0.97750  0.11090  0.89580  1.0000 -0.151167566
N   N14       1.0  0.02250  0.88910  0.89580  1.0000 -0.151167566
N   N15       1.0  0.38910  0.52250  0.39580  1.0000 -0.151167566
N   N16       1.0  0.61090  0.47750  0.39580  1.0000 -0.151167566
O   O1        1.0  0.37330  0.01350  0.95730  1.0000 -0.5223102522
O   O2        1.0  0.62670  0.98650  0.95730  1.0000 -0.5223102522
O   O3        1.0  0.48650  0.12670  0.45730  1.0000 -0.5223102522
O   O4        1.0  0.51350  0.87330  0.45730  1.0000 -0.5223102522
O   O5        1.0  0.39150  0.85210  0.98660  1.0000 -0.4956958097
O   O6        1.0  0.60850  0.14790  0.98660  1.0000 -0.4956958097
O   O7        1.0  0.64790  0.10850  0.48660  1.0000 -0.4956958097
O   O8        1.0  0.35210  0.89150  0.48660  1.0000 -0.4956958097
O   O9        1.0  0.62370  0.99030  0.36520  1.0000 -0.5223102522
O   O10       1.0  0.37630  0.00970  0.36520  1.0000 -0.5223102522
O   O11       1.0  0.50970  0.87630  0.86520  1.0000 -0.5223102522
O   O12       1.0  0.49030  0.12370  0.86520  1.0000 -0.5223102522
O   O13       1.0  0.61540  0.15800  0.33770  1.0000 -0.5755848763
O   O14       1.0  0.38460  0.84200  0.33770  1.0000 -0.5755848763
O   O15       1.0  0.34200  0.88460  0.83770  1.0000 -0.5755848763
O   O16       1.0  0.65800  0.11540  0.83770  1.0000 -0.5755848763
O   O17       1.0  0.01350  0.37330  0.04270  1.0000 -0.5223102522
O   O18       1.0  0.98650  0.62670  0.04270  1.0000 -0.5223102522
O   O19       1.0  0.12670  0.48650  0.54270  1.0000 -0.5223102522
O   O20       1.0  0.87330  0.51350  0.54270  1.0000 -0.5223102522
O   O21       1.0  0.85210  0.39150  0.01340  1.0000 -0.4956958097
O   O22       1.0  0.14790  0.60850  0.01340  1.0000 -0.4956958097
O   O23       1.0  0.10850  0.64790  0.51340  1.0000 -0.4956958097
O   O24       1.0  0.89150  0.35210  0.51340  1.0000 -0.4956958097
O   O25       1.0  0.99030  0.62370  0.63480  1.0000 -0.5223102522
O   O26       1.0  0.00970  0.37630  0.63480  1.0000 -0.5223102522
O   O27       1.0  0.87630  0.50970  0.13480  1.0000 -0.5223102522
O   O28       1.0  0.12370  0.49030  0.13480  1.0000 -0.5223102522
O   O29       1.0  0.15800  0.61540  0.66230  1.0000 -0.5755848763
O   O30       1.0  0.84200  0.38460  0.66230  1.0000 -0.5755848763
O   O31       1.0  0.88460  0.34200  0.16230  1.0000 -0.5755848763
O   O32       1.0  0.11540  0.65800  0.16230  1.0000 -0.5755848763
