# DDEC6 charges by PACMAN v1.1 (https://github.com/mtap-research/PACMAN-charge/)
data_0000[La][flu]3[ASR]1
_chemical_formula_sum              "La2 H18 C30 O16"
_cell_length_a       9.491
_cell_length_b       10.052
_cell_length_c       11.344
_cell_angle_alpha    94.429
_cell_angle_beta     97.914
_cell_angle_gamma    111.386

_symmetry_space_group_name_H-M    "P 1"
_symmetry_Int_Tables_number       1

loop_
  _symmetry_equiv_pos_as_xyz
  'x, y, z'

loop_
  _atom_site_type_symbol
  _atom_site_label
  _atom_site_symmetry_multiplicity
  _atom_site_fract_x
  _atom_site_fract_y
  _atom_site_fract_z
  _atom_site_occupancy
  _atom_site_charge
La  La1       1.0  0.78599  0.54591  0.98706  1.0000 1.8708138091
La  La2       1.0  0.21401  0.45409  0.01294  1.0000 1.8708138091
H   H1        1.0  0.18010  0.00330  0.96070  1.0000 0.1294226867
H   H2        1.0  0.81990  0.99670  0.03930  1.0000 0.1294226867
H   H3        1.0  0.31120  0.71320  0.78880  1.0000 0.1493011238
H   H4        1.0  0.68880  0.28680  0.21120  1.0000 0.1493011238
H   H5        1.0  0.58360  0.13620  0.84230  1.0000 0.1493011238
H   H6        1.0  0.41640  0.86380  0.15770  1.0000 0.1493011238
H   H7        1.0  0.34580  0.91110  0.57460  1.0000 0.1353734207
H   H8        1.0  0.65420  0.08890  0.42540  1.0000 0.1353734207
H   H9        1.0  0.25510  0.78800  0.38530  1.0000 0.1191096117
H   H10       1.0  0.74490  0.21200  0.61470  1.0000 0.1191096117
H   H11       1.0  0.56210  0.60570  0.42750  1.0000 0.1191096117
H   H12       1.0  0.43790  0.39430  0.57250  1.0000 0.1191096117
H   H13       1.0  0.64780  0.71500  0.62710  1.0000 0.1493011238
H   H14       1.0  0.35220  0.28500  0.37290  1.0000 0.1493011238
H   H15       1.0  0.04000  0.80800  0.13000  1.0000 0.3397263062
H   H16       1.0  0.96000  0.19200  0.87000  1.0000 0.3397263062
H   H17       1.0  0.93000  0.74000  0.19000  1.0000 0.3151300174
H   H18       1.0  0.07000  0.26000  0.81000  1.0000 0.3151300174
C   C1        1.0  0.41940  0.24140  0.96800  1.0000 0.6145888191
C   C2        1.0  0.58060  0.75860  0.03200  1.0000 0.6145888191
C   C3        1.0  0.38730  0.09220  0.91280  1.0000 -0.0197525437
C   C4        1.0  0.61270  0.90780  0.08720  1.0000 -0.0197525437
C   C5        1.0  0.25200  0.98240  0.92280  1.0000 -0.1396028179
C   C6        1.0  0.74800  0.01760  0.07720  1.0000 -0.1396028179
C   C7        1.0  0.22260  0.84030  0.87620  1.0000 -0.0011615021
C   C8        1.0  0.77740  0.15970  0.12380  1.0000 -0.0011615021
C   C9        1.0  0.07700  0.72420  0.89400  1.0000 0.5982254368
C   C10       1.0  0.92300  0.27580  0.10600  1.0000 0.5982254368
C   C11       1.0  0.32790  0.80800  0.81710  1.0000 -0.2207612274
C   C12       1.0  0.67210  0.19200  0.18290  1.0000 -0.2207612274
C   C13       1.0  0.45710  0.92030  0.80190  1.0000 0.2439069373
C   C14       1.0  0.54290  0.07970  0.19810  1.0000 0.2439069373
C   C15       1.0  0.49270  0.06300  0.85070  1.0000 -0.2015005924
C   C16       1.0  0.50730  0.93700  0.14930  1.0000 -0.1949788261
C   C17       1.0  0.50490  0.82420  0.62140  1.0000 0.2657250982
C   C18       1.0  0.49510  0.17580  0.37860  1.0000 0.2657250982
C   C19       1.0  0.38750  0.84670  0.54670  1.0000 -0.2207612274
C   C20       1.0  0.61250  0.15330  0.45330  1.0000 -0.2207612274
C   C21       1.0  0.33460  0.77390  0.43350  1.0000 -0.0634249154
C   C22       1.0  0.66540  0.22610  0.56650  1.0000 -0.0634249154
C   C23       1.0  0.39540  0.68000  0.38810  1.0000 -0.0527551475
C   C24       1.0  0.60460  0.32000  0.61190  1.0000 -0.0527551475
C   C25       1.0  0.33430  0.59790  0.26610  1.0000 0.5593520623
C   C26       1.0  0.66570  0.40210  0.73390  1.0000 0.5593520623
C   C27       1.0  0.51550  0.66370  0.45930  1.0000 -0.0733296502
C   C28       1.0  0.48450  0.33630  0.54070  1.0000 -0.0733296502
C   C29       1.0  0.57030  0.73150  0.57850  1.0000 -0.2015005924
C   C30       1.0  0.42970  0.26850  0.42150  1.0000 -0.2015005924
O   O1        1.0  0.55300  0.33660  0.97300  1.0000 -0.6452886838
O   O2        1.0  0.44700  0.66340  0.02700  1.0000 -0.6452886838
O   O3        1.0  0.31470  0.26110  0.00770  1.0000 -0.5811857659
O   O4        1.0  0.68530  0.73890  0.99230  1.0000 -0.5811857659
O   O5        1.0  0.95530  0.74810  0.88610  1.0000 -0.5893230814
O   O6        1.0  0.04470  0.25190  0.11390  1.0000 -0.5893230814
O   O7        1.0  0.08080  0.60340  0.92140  1.0000 -0.6736399311
O   O8        1.0  0.91920  0.39660  0.07860  1.0000 -0.6736399311
O   O9        1.0  0.56210  0.89230  0.73840  1.0000 -0.2207612274
O   O10       1.0  0.43790  0.10770  0.26160  1.0000 -0.2207612274
O   O11       1.0  0.22690  0.62060  0.20010  1.0000 -0.5893230814
O   O12       1.0  0.77310  0.37940  0.79990  1.0000 -0.5893230814
O   O13       1.0  0.38260  0.50550  0.22740  1.0000 -0.5811857659
O   O14       1.0  0.61740  0.49450  0.77260  1.0000 -0.5811857659
O   O15       1.0  0.99710  0.72160  0.15170  1.0000 -0.6863903183
O   O16       1.0  0.00290  0.27840  0.84830  1.0000 -0.6863903183
