# DDEC6 charges by PACMAN v1.1 (https://github.com/mtap-research/PACMAN-charge/)
data_SOVHAM_ASR_pacman
_symmetry_space_group_name_H-M   'P 1'
_cell_length_a   7.10100000
_cell_length_b   7.62600000
_cell_length_c   11.31560000
_cell_angle_alpha   90.00000000
_cell_angle_beta   106.60300000
_cell_angle_gamma   90.00000000
_symmetry_Int_Tables_number   1
_chemical_formula_structural   CdNiH20(C2N)6
_chemical_formula_sum   'Cd1 Ni1 H20 C12 N6'
_cell_volume   587.21729693
_cell_formula_units_Z   1
loop_
 _symmetry_equiv_pos_site_id
 _symmetry_equiv_pos_as_xyz
  1  'x, y, z'
loop_
 _atom_site_type_symbol
 _atom_site_label
 _atom_site_symmetry_multiplicity
 _atom_site_fract_x
 _atom_site_fract_y
 _atom_site_fract_z
 _atom_site_occupancy
 _atom_site_charge
Cd  Cd1  1  0.00000000  0.00000000  0.00000000  1.0 0.8728812747
Ni  Ni1  1  0.50000000  0.50000000  0.00000000  1.0 0.117538076
H  H1  1  0.82099000  0.88475000  0.75741000  1.0 0.2689993792
H  H2  1  0.17901000  0.88475000  0.24259000  1.0 0.2689993792
H  H3  1  0.17901000  0.11525000  0.24259000  1.0 0.2689993792
H  H4  1  0.82099000  0.11525000  0.75741000  1.0 0.2689993792
H  H5  1  0.53912000  0.88475000  0.83291000  1.0 0.0834798068
H  H6  1  0.46088000  0.88475000  0.16709000  1.0 0.0834798068
H  H7  1  0.46088000  0.11525000  0.16709000  1.0 0.0834798068
H  H8  1  0.53912000  0.11525000  0.83291000  1.0 0.0834798068
H  H9  1  0.48928000  0.88475000  0.60835000  1.0 0.0834798068
H  H10  1  0.51072000  0.88475000  0.39165000  1.0 0.0834798068
H  H11  1  0.51072000  0.11525000  0.39165000  1.0 0.0834798068
H  H12  1  0.48928000  0.11525000  0.60835000  1.0 0.0834798068
H  H13  1  0.19702000  0.88475000  0.68800000  1.0 0.087672513
H  H14  1  0.80298000  0.88475000  0.31200000  1.0 0.087672513
H  H15  1  0.80298000  0.11525000  0.31200000  1.0 0.087672513
H  H16  1  0.19702000  0.11525000  0.68800000  1.0 0.087672513
H  H17  1  0.14719000  0.84742000  0.45984000  1.0 0.0306674466
H  H18  1  0.85281000  0.84742000  0.54016000  1.0 0.0306674466
H  H19  1  0.85281000  0.15258000  0.54016000  1.0 0.0306674466
H  H20  1  0.14719000  0.15258000  0.45984000  1.0 0.0306674466
C  C1  1  0.69310000  0.67130000  0.03800000  1.0 0.0584613123
C  C2  1  0.30690000  0.67130000  0.96200000  1.0 0.0584613123
C  C3  1  0.30690000  0.32870000  0.96200000  1.0 0.0584613123
C  C4  1  0.69310000  0.32870000  0.03800000  1.0 0.0584613123
C  C5  1  0.57590000  0.00000000  0.78790000  1.0 -0.0016413307
C  C6  1  0.42410000  0.00000000  0.21210000  1.0 -0.0016413307
C  C7  1  0.45280000  0.00000000  0.65480000  1.0 -0.1684428751
C  C8  1  0.54720000  0.00000000  0.34520000  1.0 -0.1684428751
C  C9  1  0.23340000  0.00000000  0.64240000  1.0 -0.1684428751
C  C10  1  0.76660000  0.00000000  0.35760000  1.0 -0.1684428751
C  C11  1  0.11050000  0.00000000  0.50650000  1.0 -0.1042670867
C  C12  1  0.88950000  0.00000000  0.49350000  1.0 -0.1042670867
N  N1  1  0.81180000  0.77700000  0.05730000  1.0 -0.3770084865
N  N2  1  0.18820000  0.77700000  0.94270000  1.0 -0.3770084865
N  N3  1  0.18820000  0.22300000  0.94270000  1.0 -0.3770084865
N  N4  1  0.81180000  0.22300000  0.05730000  1.0 -0.3770084865
N  N5  1  0.78790000  0.00000000  0.80510000  1.0 -0.5239190644
N  N6  1  0.21210000  0.00000000  0.19490000  1.0 -0.5239190644
