# DDEC6 charges by PACMAN v1.1 (https://github.com/mtap-research/PACMAN-charge/)
data_2008[Cd][rtl]3[ASR]2
_chemical_formula_sum              "Cd4 H16 C36 O24"
_cell_length_a       10.1561
_cell_length_b       12.2843
_cell_length_c       14.6867
_cell_angle_alpha    90
_cell_angle_beta     102.999
_cell_angle_gamma    90

_symmetry_space_group_name_H-M    "P 1"
_symmetry_Int_Tables_number       1

loop_
  _symmetry_equiv_pos_as_xyz
  'x, y, z'

loop_
  _atom_site_type_symbol
  _atom_site_label
  _atom_site_symmetry_multiplicity
  _atom_site_fract_x
  _atom_site_fract_y
  _atom_site_fract_z
  _atom_site_occupancy
  _atom_site_charge
Cd  Cd1       1.0  0.81048  0.92430  0.93890  1.0000 1.0135822235
Cd  Cd2       1.0  0.18952  0.42430  0.56110  1.0000 1.0135822235
Cd  Cd3       1.0  0.18952  0.07570  0.06110  1.0000 1.0135822235
Cd  Cd4       1.0  0.81048  0.57570  0.43890  1.0000 1.0135822235
H   H1        1.0  0.54090  0.16320  0.70320  1.0000 0.1366292066
H   H2        1.0  0.45910  0.66320  0.79680  1.0000 0.1366292066
H   H3        1.0  0.45910  0.83680  0.29680  1.0000 0.1366292066
H   H4        1.0  0.54090  0.33680  0.20320  1.0000 0.1366292066
H   H5        1.0  0.65510  0.38680  0.53840  1.0000 0.1335950433
H   H6        1.0  0.34490  0.88680  0.96160  1.0000 0.1335950433
H   H7        1.0  0.34490  0.61320  0.46160  1.0000 0.1335950433
H   H8        1.0  0.65510  0.11320  0.03840  1.0000 0.1335950433
H   H9        1.0  0.92850  0.18170  0.68590  1.0000 0.1219222484
H   H10       1.0  0.07150  0.68170  0.81410  1.0000 0.1219222484
H   H11       1.0  0.07150  0.81830  0.31410  1.0000 0.1219222484
H   H12       1.0  0.92850  0.31830  0.18590  1.0000 0.1219222484
H   H13       1.0  0.95300  0.07240  0.82910  1.0000 0.3625740795
H   H14       1.0  0.04700  0.57240  0.67090  1.0000 0.3625740795
H   H15       1.0  0.04700  0.92760  0.17090  1.0000 0.3625740795
H   H16       1.0  0.95300  0.42760  0.32910  1.0000 0.3625740795
C   C1        1.0  0.77980  0.06870  0.77630  1.0000 0.562872821
C   C2        1.0  0.22020  0.56870  0.72370  1.0000 0.562872821
C   C3        1.0  0.22020  0.93130  0.22370  1.0000 0.562872821
C   C4        1.0  0.77980  0.43130  0.27630  1.0000 0.562872821
C   C5        1.0  0.74050  0.15740  0.70560  1.0000 -0.0594392126
C   C6        1.0  0.25950  0.65740  0.79440  1.0000 -0.0594392126
C   C7        1.0  0.25950  0.84260  0.29440  1.0000 -0.0594392126
C   C8        1.0  0.74050  0.34260  0.20560  1.0000 -0.0594392126
C   C9        1.0  0.60830  0.19560  0.67890  1.0000 -0.0701777922
C   C10       1.0  0.39170  0.69560  0.82110  1.0000 -0.0701777922
C   C11       1.0  0.39170  0.80440  0.32110  1.0000 -0.0701777922
C   C12       1.0  0.60830  0.30440  0.17890  1.0000 -0.0701777922
C   C13       1.0  0.57590  0.28130  0.61650  1.0000 -0.0095894604
C   C14       1.0  0.42410  0.78130  0.88350  1.0000 -0.0095894604
C   C15       1.0  0.42410  0.71870  0.38350  1.0000 -0.0095894604
C   C16       1.0  0.57590  0.21870  0.11650  1.0000 -0.0095894604
C   C17       1.0  0.43340  0.32400  0.59250  1.0000 0.5486799865
C   C18       1.0  0.56660  0.82400  0.90750  1.0000 0.5486799865
C   C19       1.0  0.56660  0.67600  0.40750  1.0000 0.5486799865
C   C20       1.0  0.43340  0.17600  0.09250  1.0000 0.5486799865
C   C21       1.0  0.67640  0.32940  0.58050  1.0000 -0.0795541019
C   C22       1.0  0.32360  0.82940  0.91950  1.0000 -0.0795541019
C   C23       1.0  0.32360  0.67060  0.41950  1.0000 -0.0795541019
C   C24       1.0  0.67640  0.17060  0.08050  1.0000 -0.0795541019
C   C25       1.0  0.80900  0.29270  0.60680  1.0000 -0.0302612232
C   C26       1.0  0.19100  0.79270  0.89320  1.0000 -0.0302612232
C   C27       1.0  0.19100  0.70730  0.39320  1.0000 -0.0302612232
C   C28       1.0  0.80900  0.20730  0.10680  1.0000 -0.0302612232
C   C29       1.0  0.91960  0.34620  0.57030  1.0000 0.5865710913
C   C30       1.0  0.08040  0.84620  0.92970  1.0000 0.5865710913
C   C31       1.0  0.08040  0.65380  0.42970  1.0000 0.5865710913
C   C32       1.0  0.91960  0.15380  0.07030  1.0000 0.5865710913
C   C33       1.0  0.83990  0.20680  0.66870  1.0000 -0.1155235549
C   C34       1.0  0.16010  0.70680  0.83130  1.0000 -0.1155235549
C   C35       1.0  0.16010  0.79320  0.33130  1.0000 -0.1155235549
C   C36       1.0  0.83990  0.29320  0.16870  1.0000 -0.1155235549
O   O1        1.0  0.69360  0.03640  0.81990  1.0000 -0.4855248592
O   O2        1.0  0.30640  0.53640  0.68010  1.0000 -0.4855248592
O   O3        1.0  0.30640  0.96360  0.18010  1.0000 -0.4840406539
O   O4        1.0  0.69360  0.46360  0.31990  1.0000 -0.4855248592
O   O5        1.0  0.89750  0.03120  0.79280  1.0000 -0.4026596458
O   O6        1.0  0.10250  0.53120  0.70720  1.0000 -0.4026596458
O   O7        1.0  0.10250  0.96880  0.20720  1.0000 -0.4026596458
O   O8        1.0  0.89750  0.46880  0.29280  1.0000 -0.4026596458
O   O9        1.0  0.03850  0.31680  0.60480  1.0000 -0.5155299069
O   O10       1.0  0.96150  0.81680  0.89520  1.0000 -0.5155299069
O   O11       1.0  0.96150  0.68320  0.39520  1.0000 -0.5155299069
O   O12       1.0  0.03850  0.18320  0.10480  1.0000 -0.5155299069
O   O13       1.0  0.89050  0.41460  0.50690  1.0000 -0.6131286086
O   O14       1.0  0.10950  0.91460  0.99310  1.0000 -0.6131286086
O   O15       1.0  0.10950  0.58540  0.49310  1.0000 -0.6131286086
O   O16       1.0  0.89050  0.08540  0.00690  1.0000 -0.6131286086
O   O17       1.0  0.40430  0.39760  0.53190  1.0000 -0.5419238172
O   O18       1.0  0.59570  0.89760  0.96810  1.0000 -0.5419238172
O   O19       1.0  0.59570  0.60240  0.46810  1.0000 -0.5419238172
O   O20       1.0  0.40430  0.10240  0.03190  1.0000 -0.5419238172
O   O21       1.0  0.34990  0.28740  0.63560  1.0000 -0.5419238172
O   O22       1.0  0.65010  0.78740  0.86440  1.0000 -0.5450473191
O   O23       1.0  0.65010  0.71260  0.36440  1.0000 -0.5419238172
O   O24       1.0  0.34990  0.21260  0.13560  1.0000 -0.5450473191
