# DDEC6 charges by PACMAN v1.1 (https://github.com/mtap-research/PACMAN-charge/)
data_UBUMAH_ASR_pacman
_symmetry_space_group_name_H-M   'P 1'
_cell_length_a   11.29490000
_cell_length_b   21.31200000
_cell_length_c   29.09700000
_cell_angle_alpha   90.00000000
_cell_angle_beta   90.00000000
_cell_angle_gamma   90.00000000
_symmetry_Int_Tables_number   1
_chemical_formula_structural   Zn4H14C34O13
_chemical_formula_sum   'Zn16 H56 C136 O52'
_cell_volume   7004.13989535
_cell_formula_units_Z   4
loop_
 _symmetry_equiv_pos_site_id
 _symmetry_equiv_pos_as_xyz
  1  'x, y, z'
loop_
 _atom_site_type_symbol
 _atom_site_label
 _atom_site_symmetry_multiplicity
 _atom_site_fract_x
 _atom_site_fract_y
 _atom_site_fract_z
 _atom_site_occupancy
 _atom_site_charge
Zn  Zn1  1  0.38376000  0.16450000  0.32562000  1.0 1.0066359701
Zn  Zn2  1  0.61624000  0.83550000  0.82562000  1.0 1.0066359701
Zn  Zn3  1  0.11624000  0.66450000  0.32562000  1.0 1.0066359701
Zn  Zn4  1  0.88376000  0.33550000  0.82562000  1.0 1.0066359701
Zn  Zn5  1  0.24182000  0.09925000  0.24062000  1.0 0.933733678
Zn  Zn6  1  0.75818000  0.90075000  0.74062000  1.0 0.933733678
Zn  Zn7  1  0.25818000  0.59925000  0.24062000  1.0 0.933733678
Zn  Zn8  1  0.74182000  0.40075000  0.74062000  1.0 0.933733678
Zn  Zn9  1  0.51473000  0.10486000  0.23911000  1.0 0.9804107608
Zn  Zn10  1  0.48527000  0.89514000  0.73911000  1.0 0.9804107608
Zn  Zn11  1  0.98527000  0.60486000  0.23911000  1.0 0.9804107608
Zn  Zn12  1  0.01473000  0.39514000  0.73911000  1.0 0.9804107608
Zn  Zn13  1  0.34597000  0.01585000  0.31439000  1.0 0.9690809013
Zn  Zn14  1  0.65403000  0.98415000  0.81439000  1.0 0.9690809013
Zn  Zn15  1  0.15403000  0.51585000  0.31439000  1.0 0.9690809013
Zn  Zn16  1  0.84597000  0.48415000  0.81439000  1.0 0.9690809013
H  H1  1  0.12060000  0.00250000  0.44020000  1.0 0.1206215894
H  H2  1  0.87940000  0.99750000  0.94020000  1.0 0.1206215894
H  H3  1  0.37940000  0.50250000  0.44020000  1.0 0.1206215894
H  H4  1  0.62060000  0.49750000  0.94020000  1.0 0.1206215894
H  H5  1  0.02530000  0.02230000  0.51060000  1.0 0.1300776723
H  H6  1  0.97470000  0.97770000  0.01060000  1.0 0.1300776723
H  H7  1  0.47470000  0.52230000  0.51060000  1.0 0.1300776723
H  H8  1  0.52530000  0.47770000  0.01060000  1.0 0.1300776723
H  H9  1  0.18340000  0.18830000  0.51720000  1.0 0.1206215894
H  H10  1  0.81660000  0.81170000  0.01720000  1.0 0.1206215894
H  H11  1  0.31660000  0.68830000  0.51720000  1.0 0.1206215894
H  H12  1  0.68340000  0.31170000  0.01720000  1.0 0.1206215894
H  H13  1  0.29540000  0.16620000  0.45070000  1.0 0.1300776723
H  H14  1  0.70460000  0.83380000  0.95070000  1.0 0.1300776723
H  H15  1  0.20460000  0.66620000  0.45070000  1.0 0.1300776723
H  H16  1  0.79540000  0.33380000  0.95070000  1.0 0.1300776723
H  H17  1  0.91050000  0.04630000  0.65740000  1.0 0.1300776723
H  H18  1  0.08950000  0.95370000  0.15740000  1.0 0.1300776723
H  H19  1  0.58950000  0.54630000  0.65740000  1.0 0.1300776723
H  H20  1  0.41050000  0.45370000  0.15740000  1.0 0.1300776723
H  H21  1  0.82820000  0.15400000  0.76830000  1.0 0.1300776723
H  H22  1  0.17180000  0.84600000  0.26830000  1.0 0.1300776723
H  H23  1  0.67180000  0.65400000  0.76830000  1.0 0.1300776723
H  H24  1  0.32820000  0.34600000  0.26830000  1.0 0.1300776723
H  H25  1  0.02050000  0.22230000  0.65910000  1.0 0.1206215894
H  H26  1  0.97950000  0.77770000  0.15910000  1.0 0.1206215894
H  H27  1  0.47950000  0.72230000  0.65910000  1.0 0.1206215894
H  H28  1  0.52050000  0.27770000  0.15910000  1.0 0.1206215894
H  H29  1  0.70320000  0.31190000  0.60900000  1.0 0.1300776723
H  H30  1  0.29680000  0.68810000  0.10900000  1.0 0.1300776723
H  H31  1  0.79680000  0.81190000  0.60900000  1.0 0.1300776723
H  H32  1  0.20320000  0.18810000  0.10900000  1.0 0.1300776723
H  H33  1  0.70870000  0.27730000  0.53580000  1.0 0.1376832767
H  H34  1  0.29130000  0.72270000  0.03580000  1.0 0.1376832767
H  H35  1  0.79130000  0.77730000  0.53580000  1.0 0.1376832767
H  H36  1  0.20870000  0.22270000  0.03580000  1.0 0.1376832767
H  H37  1  0.05070000  0.31200000  0.53090000  1.0 0.1300776723
H  H38  1  0.94930000  0.68800000  0.03090000  1.0 0.1300776723
H  H39  1  0.44930000  0.81200000  0.53090000  1.0 0.1300776723
H  H40  1  0.55070000  0.18800000  0.03090000  1.0 0.1300776723
H  H41  1  0.04330000  0.34750000  0.60630000  1.0 0.1300776723
H  H42  1  0.95670000  0.65250000  0.10630000  1.0 0.1300776723
H  H43  1  0.45670000  0.84750000  0.60630000  1.0 0.1300776723
H  H44  1  0.54330000  0.15250000  0.10630000  1.0 0.1300776723
H  H45  1  0.70730000  0.19700000  0.39410000  1.0 0.1376832767
H  H46  1  0.29270000  0.80300000  0.89410000  1.0 0.1376832767
H  H47  1  0.79270000  0.69700000  0.39410000  1.0 0.1376832767
H  H48  1  0.20730000  0.30300000  0.89410000  1.0 0.1376832767
H  H49  1  0.88110000  0.13490000  0.28410000  1.0 0.1206215894
H  H50  1  0.11890000  0.86510000  0.78410000  1.0 0.1206215894
H  H51  1  0.61890000  0.63490000  0.28410000  1.0 0.1206215894
H  H52  1  0.38110000  0.36510000  0.78410000  1.0 0.1206215894
H  H53  1  0.05990000  0.19980000  0.39240000  1.0 0.1206215894
H  H54  1  0.94010000  0.80020000  0.89240000  1.0 0.1206215894
H  H55  1  0.44010000  0.69980000  0.39240000  1.0 0.1206215894
H  H56  1  0.55990000  0.30020000  0.89240000  1.0 0.1206215894
C  C1  1  0.28230000  0.07070000  0.39470000  1.0 0.5926651172
C  C2  1  0.71770000  0.92930000  0.89470000  1.0 0.5926651172
C  C3  1  0.21770000  0.57070000  0.39470000  1.0 0.5926651172
C  C4  1  0.78230000  0.42930000  0.89470000  1.0 0.5926651172
C  C5  1  0.21830000  0.08500000  0.43940000  1.0 -0.0211401997
C  C6  1  0.78170000  0.91500000  0.93940000  1.0 -0.0211401997
C  C7  1  0.28170000  0.58500000  0.43940000  1.0 -0.0211401997
C  C8  1  0.71830000  0.41500000  0.93940000  1.0 -0.0211401997
C  C9  1  0.13540000  0.03930000  0.45640000  1.0 -0.0882036578
C  C10  1  0.86460000  0.96070000  0.95640000  1.0 -0.0882036578
C  C11  1  0.36460000  0.53930000  0.45640000  1.0 -0.0882036578
C  C12  1  0.63540000  0.46070000  0.95640000  1.0 -0.0882036578
C  C13  1  0.07700000  0.05200000  0.49850000  1.0 -0.1487625317
C  C14  1  0.92300000  0.94800000  0.99850000  1.0 -0.1487625317
C  C15  1  0.42300000  0.55200000  0.49850000  1.0 -0.1487625317
C  C16  1  0.57700000  0.44800000  0.99850000  1.0 -0.1487625317
C  C17  1  0.09570000  0.10890000  0.52250000  1.0 0.1206215894
C  C18  1  0.90430000  0.89110000  0.02250000  1.0 0.1206215894
C  C19  1  0.40430000  0.60890000  0.52250000  1.0 0.1206215894
C  C20  1  0.59570000  0.39110000  0.02250000  1.0 0.1206215894
C  C21  1  0.17270000  0.14970000  0.50290000  1.0 -0.1487625317
C  C22  1  0.82730000  0.85030000  0.00290000  1.0 -0.1487625317
C  C23  1  0.32730000  0.64970000  0.50290000  1.0 -0.1487625317
C  C24  1  0.67270000  0.35030000  0.00290000  1.0 -0.1487625317
C  C25  1  0.23950000  0.13770000  0.46140000  1.0 -0.0813607301
C  C26  1  0.76050000  0.86230000  0.96140000  1.0 -0.0813607301
C  C27  1  0.26050000  0.63770000  0.46140000  1.0 -0.0813607301
C  C28  1  0.73950000  0.36230000  0.96140000  1.0 -0.0813607301
C  C29  1  0.04980000  0.11520000  0.56820000  1.0 -0.1015250572
C  C30  1  0.95020000  0.88480000  0.06820000  1.0 -0.1015250572
C  C31  1  0.45020000  0.61520000  0.56820000  1.0 -0.1015250572
C  C32  1  0.54980000  0.38480000  0.06820000  1.0 -0.1015250572
C  C33  1  0.01090000  0.12490000  0.60350000  1.0 -0.0663516553
C  C34  1  0.98910000  0.87510000  0.10350000  1.0 -0.0663516553
C  C35  1  0.48910000  0.62490000  0.60350000  1.0 -0.0663516553
C  C36  1  0.51090000  0.37510000  0.10350000  1.0 -0.0663516553
C  C37  1  0.95510000  0.13400000  0.64940000  1.0 0.1206215894
C  C38  1  0.04490000  0.86600000  0.14940000  1.0 0.1206215894
C  C39  1  0.54490000  0.63400000  0.64940000  1.0 0.1206215894
C  C40  1  0.45510000  0.36600000  0.14940000  1.0 0.1206215894
C  C41  1  0.90890000  0.08550000  0.67140000  1.0 -0.1487625317
C  C42  1  0.09110000  0.91450000  0.17140000  1.0 -0.1411946384
C  C43  1  0.59110000  0.58550000  0.67140000  1.0 -0.1411946384
C  C44  1  0.40890000  0.41450000  0.17140000  1.0 -0.1411946384
C  C45  1  0.85720000  0.09120000  0.71550000  1.0 -0.0211401997
C  C46  1  0.14280000  0.90880000  0.21550000  1.0 -0.0211401997
C  C47  1  0.64280000  0.59120000  0.71550000  1.0 -0.0211401997
C  C48  1  0.35720000  0.40880000  0.21550000  1.0 -0.0211401997
C  C49  1  0.86360000  0.14880000  0.73970000  1.0 -0.1076749641
C  C50  1  0.13640000  0.85120000  0.23970000  1.0 -0.1076749641
C  C51  1  0.63640000  0.64880000  0.73970000  1.0 -0.1076749641
C  C52  1  0.36360000  0.35120000  0.23970000  1.0 -0.1076749641
C  C53  1  0.92670000  0.19830000  0.71800000  1.0 -0.0211401997
C  C54  1  0.07330000  0.80170000  0.21800000  1.0 -0.0211401997
C  C55  1  0.57330000  0.69830000  0.71800000  1.0 -0.0211401997
C  C56  1  0.42670000  0.30170000  0.21800000  1.0 -0.0211401997
C  C57  1  0.97600000  0.19060000  0.67260000  1.0 -0.1487625317
C  C58  1  0.02400000  0.80940000  0.17260000  1.0 -0.1487625317
C  C59  1  0.52400000  0.69060000  0.67260000  1.0 -0.1487625317
C  C60  1  0.47600000  0.30940000  0.17260000  1.0 -0.1487625317
C  C61  1  0.80470000  0.03410000  0.73790000  1.0 0.5962520005
C  C62  1  0.19530000  0.96590000  0.23790000  1.0 0.5962520005
C  C63  1  0.69530000  0.53410000  0.73790000  1.0 0.5962520005
C  C64  1  0.30470000  0.46590000  0.23790000  1.0 0.5962520005
C  C65  1  0.93440000  0.25969000  0.74180000  1.0 0.5926651172
C  C66  1  0.06560000  0.74031000  0.24180000  1.0 0.5926651172
C  C67  1  0.56560000  0.75969000  0.74180000  1.0 0.5926651172
C  C68  1  0.43440000  0.24031000  0.24180000  1.0 0.5926651172
C  C69  1  0.86240000  0.36740000  0.65930000  1.0 0.5926651172
C  C70  1  0.13760000  0.63260000  0.15930000  1.0 0.5926651172
C  C71  1  0.63760000  0.86740000  0.65930000  1.0 0.5926651172
C  C72  1  0.36240000  0.13260000  0.15930000  1.0 0.5926651172
C  C73  1  0.86720000  0.34110000  0.61310000  1.0 -0.0458444668
C  C74  1  0.13280000  0.65890000  0.11310000  1.0 -0.0458444668
C  C75  1  0.63280000  0.84110000  0.61310000  1.0 -0.0458444668
C  C76  1  0.36720000  0.15890000  0.11310000  1.0 -0.0458444668
C  C77  1  0.77440000  0.31360000  0.59300000  1.0 -0.0813607301
C  C78  1  0.22560000  0.68640000  0.09300000  1.0 -0.0813607301
C  C79  1  0.72560000  0.81360000  0.59300000  1.0 -0.0813607301
C  C80  1  0.27440000  0.18640000  0.09300000  1.0 -0.0813607301
C  C81  1  0.77910000  0.28800000  0.55040000  1.0 -0.1308779804
C  C82  1  0.22090000  0.71200000  0.05040000  1.0 -0.1308779804
C  C83  1  0.72090000  0.78800000  0.55040000  1.0 -0.1308779804
C  C84  1  0.27910000  0.21200000  0.05040000  1.0 -0.1308779804
C  C85  1  0.87890000  0.27790000  0.52920000  1.0 0.1206215894
C  C86  1  0.12110000  0.72210000  0.02920000  1.0 0.1206215894
C  C87  1  0.62110000  0.77790000  0.52920000  1.0 0.1206215894
C  C88  1  0.37890000  0.22210000  0.02920000  1.0 0.1206215894
C  C89  1  0.98110000  0.30910000  0.54790000  1.0 -0.1411946384
C  C90  1  0.01890000  0.69090000  0.04790000  1.0 -0.1411946384
C  C91  1  0.51890000  0.80910000  0.54790000  1.0 -0.1308779804
C  C92  1  0.48110000  0.19090000  0.04790000  1.0 -0.1308779804
C  C93  1  0.97450000  0.33460000  0.59150000  1.0 -0.0882036578
C  C94  1  0.02550000  0.66540000  0.09150000  1.0 -0.0882036578
C  C95  1  0.52550000  0.83460000  0.59150000  1.0 -0.0882036578
C  C96  1  0.47450000  0.16540000  0.09150000  1.0 -0.0882036578
C  C97  1  0.88780000  0.24890000  0.48520000  1.0 -0.1015250572
C  C98  1  0.11220000  0.75110000  0.98520000  1.0 -0.1015250572
C  C99  1  0.61220000  0.74890000  0.48520000  1.0 -0.1015250572
C  C100  1  0.38780000  0.25110000  0.98520000  1.0 -0.1015250572
C  C101  1  0.88650000  0.23110000  0.44630000  1.0 -0.0813607301
C  C102  1  0.11350000  0.76890000  0.94630000  1.0 -0.0813607301
C  C103  1  0.61350000  0.73110000  0.44630000  1.0 -0.0813607301
C  C104  1  0.38650000  0.26890000  0.94630000  1.0 -0.0813607301
C  C105  1  0.88200000  0.20430000  0.40010000  1.0 0.1300776723
C  C106  1  0.11800000  0.79570000  0.90010000  1.0 0.1300776723
C  C107  1  0.61800000  0.70430000  0.40010000  1.0 0.1300776723
C  C108  1  0.38200000  0.29570000  0.90010000  1.0 0.1300776723
C  C109  1  0.77840000  0.18990000  0.37890000  1.0 -0.118569353
C  C110  1  0.22160000  0.81010000  0.87890000  1.0 -0.118569353
C  C111  1  0.72160000  0.68990000  0.37890000  1.0 -0.118569353
C  C112  1  0.27840000  0.31010000  0.87890000  1.0 -0.118569353
C  C113  1  0.77660000  0.16540000  0.33590000  1.0 -0.0251907179
C  C114  1  0.22340000  0.83460000  0.83590000  1.0 -0.0251907179
C  C115  1  0.72340000  0.66540000  0.33590000  1.0 -0.0251907179
C  C116  1  0.27660000  0.33460000  0.83590000  1.0 -0.0211401997
C  C117  1  0.88340000  0.15270000  0.31320000  1.0 -0.0634519583
C  C118  1  0.11660000  0.84730000  0.81320000  1.0 -0.0634519583
C  C119  1  0.61660000  0.65270000  0.31320000  1.0 -0.0634519583
C  C120  1  0.38340000  0.34730000  0.81320000  1.0 -0.0634519583
C  C121  1  0.99240000  0.16590000  0.33290000  1.0 -0.1076749641
C  C122  1  0.00760000  0.83410000  0.83290000  1.0 -0.1076749641
C  C123  1  0.50760000  0.66590000  0.33290000  1.0 -0.1076749641
C  C124  1  0.49240000  0.33410000  0.83290000  1.0 -0.1076749641
C  C125  1  0.98890000  0.19130000  0.37740000  1.0 -0.1015250572
C  C126  1  0.01110000  0.80870000  0.87740000  1.0 -0.1015250572
C  C127  1  0.51110000  0.69130000  0.37740000  1.0 -0.1015250572
C  C128  1  0.48890000  0.30870000  0.87740000  1.0 -0.1015250572
C  C129  1  0.65780000  0.14790000  0.31340000  1.0 0.6112435223
C  C130  1  0.34220000  0.85210000  0.81340000  1.0 0.6112435223
C  C131  1  0.84220000  0.64790000  0.31340000  1.0 0.6112435223
C  C132  1  0.15780000  0.35210000  0.81340000  1.0 0.6112435223
C  C133  1  0.09840000  0.15650000  0.31050000  1.0 0.5464046659
C  C134  1  0.90160000  0.84350000  0.81050000  1.0 0.5464046659
C  C135  1  0.40160000  0.65650000  0.31050000  1.0 0.5464046659
C  C136  1  0.59840000  0.34350000  0.81050000  1.0 0.5464046659
O  O1  1  0.37790000  0.09147000  0.28064000  1.0 -1.0256142555
O  O2  1  0.62210000  0.90853000  0.78064000  1.0 -1.0256142555
O  O3  1  0.12210000  0.59147000  0.28064000  1.0 -1.0256142555
O  O4  1  0.87790000  0.40853000  0.78064000  1.0 -1.0256142555
O  O5  1  0.36680000  0.10360000  0.38550000  1.0 -0.4989655672
O  O6  1  0.63320000  0.89640000  0.88550000  1.0 -0.5083488164
O  O7  1  0.13320000  0.60360000  0.38550000  1.0 -0.5083488164
O  O8  1  0.86680000  0.39640000  0.88550000  1.0 -0.4989655672
O  O9  1  0.24760000  0.02540000  0.36940000  1.0 -0.5361685692
O  O10  1  0.75240000  0.97460000  0.86940000  1.0 -0.5361685692
O  O11  1  0.25240000  0.52540000  0.36940000  1.0 -0.5361685692
O  O12  1  0.74760000  0.47460000  0.86940000  1.0 -0.5361685692
O  O13  1  0.81020000  0.98368000  0.71856000  1.0 -0.4989655672
O  O14  1  0.18980000  0.01632000  0.21856000  1.0 -0.4948655305
O  O15  1  0.68980000  0.48368000  0.71856000  1.0 -0.4989655672
O  O16  1  0.31020000  0.51632000  0.21856000  1.0 -0.4989655672
O  O17  1  0.75340000  0.04327000  0.77767000  1.0 -0.5702518163
O  O18  1  0.24660000  0.95673000  0.27767000  1.0 -0.5702518163
O  O19  1  0.74660000  0.54327000  0.77767000  1.0 -0.5702518163
O  O20  1  0.25340000  0.45673000  0.27767000  1.0 -0.5702518163
O  O21  1  0.87490000  0.26740000  0.77770000  1.0 -0.5479121376
O  O22  1  0.12510000  0.73260000  0.27770000  1.0 -0.5479121376
O  O23  1  0.62510000  0.76740000  0.77770000  1.0 -0.5479121376
O  O24  1  0.37490000  0.23260000  0.27770000  1.0 -0.5479121376
O  O25  1  0.00370000  0.30025000  0.72339000  1.0 -0.5598126333
O  O26  1  0.99630000  0.69975000  0.22339000  1.0 -0.5598126333
O  O27  1  0.49630000  0.80025000  0.72339000  1.0 -0.5598126333
O  O28  1  0.50370000  0.19975000  0.22339000  1.0 -0.5598126333
O  O29  1  0.76430000  0.35651000  0.68156000  1.0 -0.5299637554
O  O30  1  0.23570000  0.64349000  0.18156000  1.0 -0.5299637554
O  O31  1  0.73570000  0.85651000  0.68156000  1.0 -0.5299637554
O  O32  1  0.26430000  0.14349000  0.18156000  1.0 -0.5299637554
O  O33  1  0.94650000  0.40324000  0.67256000  1.0 -0.5479121376
O  O34  1  0.05350000  0.59676000  0.17256000  1.0 -0.5479121376
O  O35  1  0.55350000  0.90324000  0.67256000  1.0 -0.5479121376
O  O36  1  0.44650000  0.09676000  0.17256000  1.0 -0.5479121376
O  O37  1  0.56370000  0.16321000  0.33482000  1.0 -0.5702518163
O  O38  1  0.43630000  0.83679000  0.83482000  1.0 -0.5702518163
O  O39  1  0.93630000  0.66321000  0.33482000  1.0 -0.5702518163
O  O40  1  0.06370000  0.33679000  0.83482000  1.0 -0.5702518163
O  O41  1  0.66210000  0.12062000  0.27549000  1.0 -0.5479121376
O  O42  1  0.33790000  0.87938000  0.77549000  1.0 -0.5479121376
O  O43  1  0.83790000  0.62062000  0.27549000  1.0 -0.5479121376
O  O44  1  0.16210000  0.37938000  0.77549000  1.0 -0.5479121376
O  O45  1  0.19500000  0.16790000  0.33180000  1.0 -0.5598126333
O  O46  1  0.80500000  0.83210000  0.83180000  1.0 -0.5479121376
O  O47  1  0.30500000  0.66790000  0.33180000  1.0 -0.5598126333
O  O48  1  0.69500000  0.33210000  0.83180000  1.0 -0.5598126333
O  O49  1  0.09670000  0.13007000  0.26998000  1.0 -0.5299637554
O  O50  1  0.90330000  0.86993000  0.76998000  1.0 -0.5299637554
O  O51  1  0.40330000  0.63007000  0.26998000  1.0 -0.5299637554
O  O52  1  0.59670000  0.36993000  0.76998000  1.0 -0.5299637554
