# DDEC6 charges by PACMAN v1.1 (https://github.com/mtap-research/PACMAN-charge/)
data_2002[NiMo][nan]3[ASR]1
_chemical_formula_sum              "Ni8 Mo8 H128 C160 N32 O16"
_cell_length_a       13.1866
_cell_length_b       13.1866
_cell_length_c       29.4577
_cell_angle_alpha    90
_cell_angle_beta     90
_cell_angle_gamma    90

_symmetry_space_group_name_H-M    "P 1"
_symmetry_Int_Tables_number       1

loop_
  _symmetry_equiv_pos_as_xyz
  'x, y, z'

loop_
  _atom_site_type_symbol
  _atom_site_label
  _atom_site_symmetry_multiplicity
  _atom_site_fract_x
  _atom_site_fract_y
  _atom_site_fract_z
  _atom_site_occupancy
  _atom_site_charge
Ni  Ni1       1.0  0.26149  0.28031  0.63292  1.0000 0.7262863618
Ni  Ni2       1.0  0.73851  0.71969  0.13292  1.0000 0.7262863618
Ni  Ni3       1.0  0.21969  0.76149  0.88292  1.0000 0.7262863618
Ni  Ni4       1.0  0.78031  0.23851  0.38292  1.0000 0.7262863618
Ni  Ni5       1.0  0.23851  0.78031  0.61708  1.0000 0.7262863618
Ni  Ni6       1.0  0.76149  0.21969  0.11708  1.0000 0.7262863618
Ni  Ni7       1.0  0.28031  0.26149  0.36708  1.0000 0.7262863618
Ni  Ni8       1.0  0.71969  0.73851  0.86708  1.0000 0.7262863618
Mo  Mo1       1.0  0.38097  0.53629  0.61997  1.0000 0.5920339626
Mo  Mo2       1.0  0.61903  0.46371  0.11997  1.0000 0.5966395689
Mo  Mo3       1.0  0.96371  0.88097  0.86997  1.0000 0.5966395689
Mo  Mo4       1.0  0.03629  0.11903  0.36997  1.0000 0.5920339626
Mo  Mo5       1.0  0.11903  0.03629  0.63003  1.0000 0.5920339626
Mo  Mo6       1.0  0.88097  0.96371  0.13003  1.0000 0.5966395689
Mo  Mo7       1.0  0.53629  0.38097  0.38003  1.0000 0.5966395689
Mo  Mo8       1.0  0.46371  0.61903  0.88003  1.0000 0.5920339626
H   H1        1.0  0.14230  0.46390  0.60620  1.0000 0.1004723561
H   H2        1.0  0.85770  0.53610  0.10620  1.0000 0.1004723561
H   H3        1.0  0.03610  0.64230  0.85620  1.0000 0.1004723561
H   H4        1.0  0.96390  0.35770  0.35620  1.0000 0.1004723561
H   H5        1.0  0.35770  0.96390  0.64380  1.0000 0.1004723561
H   H6        1.0  0.64230  0.03610  0.14380  1.0000 0.1004723561
H   H7        1.0  0.46390  0.14230  0.39380  1.0000 0.1004723561
H   H8        1.0  0.53610  0.85770  0.89380  1.0000 0.1004723561
H   H9        1.0  0.00850  0.51160  0.56050  1.0000 0.1204110386
H   H10       1.0  0.99150  0.48840  0.06050  1.0000 0.1204110386
H   H11       1.0  0.98840  0.50850  0.81050  1.0000 0.1204110386
H   H12       1.0  0.01160  0.49150  0.31050  1.0000 0.1204110386
H   H13       1.0  0.49150  0.01160  0.68950  1.0000 0.1204110386
H   H14       1.0  0.50850  0.98840  0.18950  1.0000 0.1204110386
H   H15       1.0  0.51160  0.00850  0.43950  1.0000 0.1204110386
H   H16       1.0  0.48840  0.99150  0.93950  1.0000 0.1204110386
H   H17       1.0  0.05290  0.25010  0.49110  1.0000 0.1274655712
H   H18       1.0  0.94710  0.74990  0.99110  1.0000 0.1274655712
H   H19       1.0  0.24990  0.55290  0.74110  1.0000 0.1274655712
H   H20       1.0  0.75010  0.44710  0.24110  1.0000 0.1274655712
H   H21       1.0  0.44710  0.75010  0.75890  1.0000 0.1274655712
H   H22       1.0  0.55290  0.24990  0.25890  1.0000 0.1274655712
H   H23       1.0  0.25010  0.05290  0.50890  1.0000 0.1274655712
H   H24       1.0  0.74990  0.94710  0.00890  1.0000 0.1274655712
H   H25       1.0  0.17480  0.20970  0.54250  1.0000 0.1004723561
H   H26       1.0  0.82520  0.79030  0.04250  1.0000 0.1004723561
H   H27       1.0  0.29030  0.67480  0.79250  1.0000 0.1004723561
H   H28       1.0  0.70970  0.32520  0.29250  1.0000 0.1004723561
H   H29       1.0  0.32520  0.70970  0.70750  1.0000 0.1004723561
H   H30       1.0  0.67480  0.29030  0.20750  1.0000 0.1004723561
H   H31       1.0  0.20970  0.17480  0.45750  1.0000 0.1004723561
H   H32       1.0  0.79030  0.82520  0.95750  1.0000 0.1004723561
H   H33       1.0  0.84890  0.06090  0.43790  1.0000 0.1004723561
H   H34       1.0  0.15110  0.93910  0.93790  1.0000 0.1004723561
H   H35       1.0  0.43910  0.34890  0.68790  1.0000 0.1004723561
H   H36       1.0  0.56090  0.65110  0.18790  1.0000 0.1004723561
H   H37       1.0  0.65110  0.56090  0.81210  1.0000 0.1004723561
H   H38       1.0  0.34890  0.43910  0.31210  1.0000 0.1004723561
H   H39       1.0  0.06090  0.84890  0.56210  1.0000 0.1004723561
H   H40       1.0  0.93910  0.15110  0.06210  1.0000 0.1004723561
H   H41       1.0  0.82450  0.98180  0.50800  1.0000 0.1204110386
H   H42       1.0  0.17550  0.01820  0.00800  1.0000 0.1204110386
H   H43       1.0  0.51820  0.32450  0.75800  1.0000 0.1204110386
H   H44       1.0  0.48180  0.67550  0.25800  1.0000 0.1204110386
H   H45       1.0  0.67550  0.48180  0.74200  1.0000 0.1204110386
H   H46       1.0  0.32450  0.51820  0.24200  1.0000 0.1204110386
H   H47       1.0  0.98180  0.82450  0.49200  1.0000 0.1204110386
H   H48       1.0  0.01820  0.17550  0.99200  1.0000 0.1204110386
H   H49       1.0  0.69940  0.04220  0.55710  1.0000 0.1108386499
H   H50       1.0  0.30060  0.95780  0.05710  1.0000 0.1108386499
H   H51       1.0  0.45780  0.19940  0.80710  1.0000 0.1108386499
H   H52       1.0  0.54220  0.80060  0.30710  1.0000 0.1108386499
H   H53       1.0  0.80060  0.54220  0.69290  1.0000 0.1108386499
H   H54       1.0  0.19940  0.45780  0.19290  1.0000 0.1108386499
H   H55       1.0  0.04220  0.69940  0.44290  1.0000 0.1108386499
H   H56       1.0  0.95780  0.30060  0.94290  1.0000 0.1108386499
H   H57       1.0  0.62470  0.24460  0.46050  1.0000 0.0907231522
H   H58       1.0  0.37530  0.75540  0.96050  1.0000 0.0907231522
H   H59       1.0  0.25540  0.12470  0.71050  1.0000 0.0907231522
H   H60       1.0  0.74460  0.87530  0.21050  1.0000 0.0907231522
H   H61       1.0  0.87530  0.74460  0.78950  1.0000 0.0907231522
H   H62       1.0  0.12470  0.25540  0.28950  1.0000 0.0907231522
H   H63       1.0  0.24460  0.62470  0.53950  1.0000 0.0907231522
H   H64       1.0  0.75540  0.37530  0.03950  1.0000 0.0907231522
H   H65       1.0  0.37290  0.34220  0.54410  1.0000 0.1004723561
H   H66       1.0  0.62710  0.65780  0.04410  1.0000 0.1004723561
H   H67       1.0  0.15780  0.87290  0.79410  1.0000 0.1004723561
H   H68       1.0  0.84220  0.12710  0.29410  1.0000 0.1004723561
H   H69       1.0  0.12710  0.84220  0.70590  1.0000 0.1004723561
H   H70       1.0  0.87290  0.15780  0.20590  1.0000 0.1004723561
H   H71       1.0  0.34220  0.37290  0.45590  1.0000 0.1004723561
H   H72       1.0  0.65780  0.62710  0.95590  1.0000 0.1004723561
H   H73       1.0  0.50830  0.30000  0.50210  1.0000 0.1274655712
H   H74       1.0  0.49170  0.70000  0.00210  1.0000 0.1274655712
H   H75       1.0  0.20000  0.00830  0.75210  1.0000 0.1274655712
H   H76       1.0  0.80000  0.99170  0.25210  1.0000 0.1274655712
H   H77       1.0  0.99170  0.80000  0.74790  1.0000 0.1274655712
H   H78       1.0  0.00830  0.20000  0.24790  1.0000 0.1274655712
H   H79       1.0  0.30000  0.50830  0.49790  1.0000 0.1274655712
H   H80       1.0  0.70000  0.49170  0.99790  1.0000 0.1274655712
H   H81       1.0  0.56130  0.07290  0.58860  1.0000 0.1204110386
H   H82       1.0  0.43870  0.92710  0.08860  1.0000 0.1204110386
H   H83       1.0  0.42710  0.06130  0.83860  1.0000 0.1204110386
H   H84       1.0  0.57290  0.93870  0.33860  1.0000 0.1204110386
H   H85       1.0  0.93870  0.57290  0.66140  1.0000 0.1204110386
H   H86       1.0  0.06130  0.42710  0.16140  1.0000 0.1204110386
H   H87       1.0  0.07290  0.56130  0.41140  1.0000 0.1204110386
H   H88       1.0  0.92710  0.43870  0.91140  1.0000 0.1204110386
H   H89       1.0  0.42480  0.12160  0.62830  1.0000 0.1004723561
H   H90       1.0  0.57520  0.87840  0.12830  1.0000 0.1004723561
H   H91       1.0  0.37840  0.92480  0.87830  1.0000 0.1004723561
H   H92       1.0  0.62160  0.07520  0.37830  1.0000 0.1004723561
H   H93       1.0  0.07520  0.62160  0.62170  1.0000 0.1004723561
H   H94       1.0  0.92480  0.37840  0.12170  1.0000 0.1004723561
H   H95       1.0  0.12160  0.42480  0.37170  1.0000 0.1004723561
H   H96       1.0  0.87840  0.57520  0.87170  1.0000 0.1004723561
H   H97       1.0  0.74230  0.46920  0.39970  1.0000 0.0907231522
H   H98       1.0  0.25770  0.53080  0.89970  1.0000 0.0907231522
H   H99       1.0  0.03080  0.24230  0.64970  1.0000 0.0907231522
H   H100      1.0  0.96920  0.75770  0.14970  1.0000 0.0907231522
H   H101      1.0  0.75770  0.96920  0.85030  1.0000 0.0907231522
H   H102      1.0  0.24230  0.03080  0.35030  1.0000 0.0907231522
H   H103      1.0  0.46920  0.74230  0.60030  1.0000 0.0907231522
H   H104      1.0  0.53080  0.25770  0.10030  1.0000 0.0907231522
H   H105      1.0  0.79540  0.59740  0.44780  1.0000 0.1274655712
H   H106      1.0  0.20460  0.40260  0.94780  1.0000 0.1274655712
H   H107      1.0  0.90260  0.29540  0.69780  1.0000 0.1274655712
H   H108      1.0  0.09740  0.70460  0.19780  1.0000 0.1274655712
H   H109      1.0  0.70460  0.09740  0.80220  1.0000 0.1274655712
H   H110      1.0  0.29540  0.90260  0.30220  1.0000 0.1274655712
H   H111      1.0  0.59740  0.79540  0.55220  1.0000 0.1274655712
H   H112      1.0  0.40260  0.20460  0.05220  1.0000 0.1274655712
H   H113      1.0  0.91490  0.56560  0.50200  1.0000 0.1108386499
H   H114      1.0  0.08510  0.43440  0.00200  1.0000 0.1108386499
H   H115      1.0  0.93440  0.41490  0.75200  1.0000 0.1108386499
H   H116      1.0  0.06560  0.58510  0.25200  1.0000 0.1108386499
H   H117      1.0  0.58510  0.06560  0.74800  1.0000 0.1108386499
H   H118      1.0  0.41490  0.93440  0.24800  1.0000 0.1108386499
H   H119      1.0  0.56560  0.91490  0.49800  1.0000 0.1108386499
H   H120      1.0  0.43440  0.08510  0.99800  1.0000 0.1108386499
H   H121      1.0  0.90740  0.27410  0.46240  1.0000 0.1108386499
H   H122      1.0  0.09260  0.72590  0.96240  1.0000 0.1108386499
H   H123      1.0  0.22590  0.40740  0.71240  1.0000 0.1108386499
H   H124      1.0  0.77410  0.59260  0.21240  1.0000 0.1108386499
H   H125      1.0  0.59260  0.77410  0.78760  1.0000 0.1108386499
H   H126      1.0  0.40740  0.22590  0.28760  1.0000 0.1108386499
H   H127      1.0  0.27410  0.90740  0.53760  1.0000 0.1108386499
H   H128      1.0  0.72590  0.09260  0.03760  1.0000 0.1108386499
C   C1        1.0  0.12160  0.41950  0.58340  1.0000 0.0733582526
C   C2        1.0  0.87840  0.58050  0.08340  1.0000 0.0733582526
C   C3        1.0  0.08050  0.62160  0.83340  1.0000 0.0733582526
C   C4        1.0  0.91950  0.37840  0.33340  1.0000 0.0733582526
C   C5        1.0  0.37840  0.91950  0.66667  1.0000 0.0733582526
C   C6        1.0  0.62160  0.08050  0.16660  1.0000 0.0733582526
C   C7        1.0  0.41950  0.12160  0.41660  1.0000 0.0733582526
C   C8        1.0  0.58050  0.87840  0.91660  1.0000 0.0733582526
C   C9        1.0  0.04160  0.45040  0.55530  1.0000 -0.2173204184
C   C10       1.0  0.95840  0.54960  0.05530  1.0000 -0.2173204184
C   C11       1.0  0.04960  0.54160  0.80530  1.0000 -0.2173204184
C   C12       1.0  0.95040  0.45840  0.30530  1.0000 -0.2173204184
C   C13       1.0  0.45840  0.95040  0.69470  1.0000 -0.2173204184
C   C14       1.0  0.54160  0.04960  0.19470  1.0000 -0.2173204184
C   C15       1.0  0.45040  0.04160  0.44470  1.0000 -0.2173204184
C   C16       1.0  0.54960  0.95840  0.94470  1.0000 -0.2173204184
C   C17       1.0  0.01250  0.38780  0.51940  1.0000 0.1108386499
C   C18       1.0  0.98750  0.61220  0.01940  1.0000 0.1108386499
C   C19       1.0  0.11220  0.51250  0.76940  1.0000 0.1108386499
C   C20       1.0  0.88780  0.48750  0.26940  1.0000 0.1108386499
C   C21       1.0  0.48750  0.88780  0.73060  1.0000 0.1108386499
C   C22       1.0  0.51250  0.11220  0.23060  1.0000 0.1108386499
C   C23       1.0  0.38780  0.01250  0.48060  1.0000 0.1108386499
C   C24       1.0  0.61220  0.98750  0.98060  1.0000 0.1108386499
C   C25       1.0  0.06750  0.29440  0.51480  1.0000 -0.2173204184
C   C26       1.0  0.93250  0.70560  0.01480  1.0000 -0.2173204184
C   C27       1.0  0.20560  0.56750  0.76480  1.0000 -0.2173204184
C   C28       1.0  0.79440  0.43250  0.26480  1.0000 -0.2173204184
C   C29       1.0  0.43250  0.79440  0.73520  1.0000 -0.2173204184
C   C30       1.0  0.56750  0.20560  0.23520  1.0000 -0.2173204184
C   C31       1.0  0.29440  0.06750  0.48520  1.0000 -0.2173204184
C   C32       1.0  0.70560  0.93250  0.98520  1.0000 -0.2173204184
C   C33       1.0  0.14160  0.27150  0.54560  1.0000 0.0410793386
C   C34       1.0  0.85840  0.72850  0.04560  1.0000 0.0410793386
C   C35       1.0  0.22850  0.64160  0.79560  1.0000 0.0410793386
C   C36       1.0  0.77150  0.35840  0.29560  1.0000 0.0410793386
C   C37       1.0  0.35840  0.77150  0.70440  1.0000 0.0410793386
C   C38       1.0  0.64160  0.22850  0.20440  1.0000 0.0410793386
C   C39       1.0  0.27150  0.14160  0.45440  1.0000 0.0410793386
C   C40       1.0  0.72850  0.85840  0.95440  1.0000 0.0410793386
C   C41       1.0  0.79720  0.08360  0.45680  1.0000 0.0629061767
C   C42       1.0  0.20280  0.91640  0.95680  1.0000 0.0629061767
C   C43       1.0  0.41640  0.29720  0.70680  1.0000 0.0629061767
C   C44       1.0  0.58360  0.70280  0.20680  1.0000 0.0629061767
C   C45       1.0  0.70280  0.58360  0.79320  1.0000 0.0629061767
C   C46       1.0  0.29720  0.41640  0.29320  1.0000 0.0629061767
C   C47       1.0  0.08360  0.79720  0.54320  1.0000 0.0629061767
C   C48       1.0  0.91640  0.20280  0.04320  1.0000 0.0629061767
C   C49       1.0  0.78320  0.03570  0.49940  1.0000 -0.159280385
C   C50       1.0  0.21680  0.96430  0.99940  1.0000 -0.159280385
C   C51       1.0  0.46430  0.28320  0.74940  1.0000 -0.159280385
C   C52       1.0  0.53570  0.71680  0.24940  1.0000 -0.159280385
C   C53       1.0  0.71680  0.53570  0.75060  1.0000 -0.159280385
C   C54       1.0  0.28320  0.46430  0.25060  1.0000 -0.159280385
C   C55       1.0  0.03570  0.78320  0.50060  1.0000 -0.159280385
C   C56       1.0  0.96430  0.21680  0.00060  1.0000 -0.159280385
C   C57       1.0  0.70730  0.07010  0.52830  1.0000 -0.1096302672
C   C58       1.0  0.29270  0.92990  0.02830  1.0000 -0.1096302672
C   C59       1.0  0.42990  0.20730  0.77830  1.0000 -0.1096302672
C   C60       1.0  0.57010  0.79270  0.27830  1.0000 -0.1096302672
C   C61       1.0  0.79270  0.57010  0.72170  1.0000 -0.1096302672
C   C62       1.0  0.20730  0.42990  0.22170  1.0000 -0.1096302672
C   C63       1.0  0.07010  0.70730  0.47170  1.0000 -0.1096302672
C   C64       1.0  0.92990  0.29270  0.97170  1.0000 -0.1096302672
C   C65       1.0  0.64280  0.14780  0.51330  1.0000 0.0157333407
C   C66       1.0  0.35720  0.85220  0.01330  1.0000 0.0157333407
C   C67       1.0  0.35220  0.14280  0.76330  1.0000 0.0157333407
C   C68       1.0  0.64780  0.85720  0.26330  1.0000 0.0157333407
C   C69       1.0  0.85720  0.64780  0.73670  1.0000 0.0157333407
C   C70       1.0  0.14280  0.35220  0.23670  1.0000 0.0157333407
C   C71       1.0  0.14780  0.64280  0.48670  1.0000 0.0157333407
C   C72       1.0  0.85220  0.35720  0.98670  1.0000 0.0157333407
C   C73       1.0  0.66470  0.19090  0.47040  1.0000 0.0157333407
C   C74       1.0  0.33530  0.80910  0.97040  1.0000 0.0157333407
C   C75       1.0  0.30910  0.16470  0.72040  1.0000 0.0157333407
C   C76       1.0  0.69090  0.83530  0.22040  1.0000 0.0157333407
C   C77       1.0  0.83530  0.69090  0.77960  1.0000 0.0157333407
C   C78       1.0  0.16470  0.30910  0.27960  1.0000 0.0157333407
C   C79       1.0  0.19090  0.66470  0.52960  1.0000 0.0157333407
C   C80       1.0  0.80910  0.33530  0.02960  1.0000 0.0157333407
C   C81       1.0  0.41190  0.28740  0.55360  1.0000 0.0488660721
C   C82       1.0  0.58810  0.71260  0.05360  1.0000 0.0488660721
C   C83       1.0  0.21260  0.91190  0.80360  1.0000 0.0488660721
C   C84       1.0  0.78740  0.08810  0.30360  1.0000 0.0488660721
C   C85       1.0  0.08810  0.78740  0.69640  1.0000 0.0488660721
C   C86       1.0  0.91190  0.21260  0.19640  1.0000 0.0488660721
C   C87       1.0  0.28740  0.41190  0.44640  1.0000 0.0488660721
C   C88       1.0  0.71260  0.58810  0.94640  1.0000 0.0488660721
C   C89       1.0  0.49320  0.26240  0.52790  1.0000 -0.201931594
C   C90       1.0  0.50680  0.73760  0.02790  1.0000 -0.201931594
C   C91       1.0  0.23760  0.99320  0.77790  1.0000 -0.201931594
C   C92       1.0  0.76240  0.00680  0.27790  1.0000 -0.201931594
C   C93       1.0  0.00680  0.76240  0.72210  1.0000 -0.201931594
C   C94       1.0  0.99320  0.23760  0.22210  1.0000 -0.201931594
C   C95       1.0  0.26240  0.49320  0.47210  1.0000 -0.201931594
C   C96       1.0  0.73760  0.50680  0.97210  1.0000 -0.201931594
C   C97       1.0  0.55430  0.18070  0.54010  1.0000 0.1108386499
C   C98       1.0  0.44570  0.81930  0.04010  1.0000 0.1108386499
C   C99       1.0  0.31930  0.05430  0.79010  1.0000 0.1108386499
C   C100      1.0  0.68070  0.94570  0.29010  1.0000 0.1108386499
C   C101      1.0  0.94570  0.68070  0.70990  1.0000 0.1108386499
C   C102      1.0  0.05430  0.31930  0.20990  1.0000 0.1108386499
C   C103      1.0  0.18070  0.55430  0.45990  1.0000 0.1108386499
C   C104      1.0  0.81930  0.44570  0.95990  1.0000 0.1108386499
C   C105      1.0  0.52430  0.12890  0.57890  1.0000 -0.206414667
C   C106      1.0  0.47570  0.87110  0.07890  1.0000 -0.206414667
C   C107      1.0  0.37110  0.02430  0.82890  1.0000 -0.206414667
C   C108      1.0  0.62890  0.97570  0.32890  1.0000 -0.206414667
C   C109      1.0  0.97570  0.62890  0.67110  1.0000 -0.206414667
C   C110      1.0  0.02430  0.37110  0.17110  1.0000 -0.206414667
C   C111      1.0  0.12890  0.52430  0.42110  1.0000 -0.206414667
C   C112      1.0  0.87110  0.47570  0.92110  1.0000 -0.206414667
C   C113      1.0  0.44230  0.15860  0.60260  1.0000 0.0410793386
C   C114      1.0  0.55770  0.84140  0.10260  1.0000 0.0410793386
C   C115      1.0  0.34140  0.94230  0.85260  1.0000 0.0410793386
C   C116      1.0  0.65860  0.05770  0.35260  1.0000 0.0410793386
C   C117      1.0  0.05770  0.65860  0.64740  1.0000 0.0410793386
C   C118      1.0  0.94230  0.34140  0.14740  1.0000 0.0410793386
C   C119      1.0  0.15860  0.44230  0.39740  1.0000 0.0410793386
C   C120      1.0  0.84140  0.55770  0.89740  1.0000 0.0410793386
C   C121      1.0  0.78870  0.45410  0.42250  1.0000 0.0410793386
C   C122      1.0  0.21130  0.54590  0.92250  1.0000 0.0410793386
C   C123      1.0  0.04590  0.28870  0.67250  1.0000 0.0410793386
C   C124      1.0  0.95410  0.71130  0.17250  1.0000 0.0410793386
C   C125      1.0  0.71130  0.95410  0.82750  1.0000 0.0410793386
C   C126      1.0  0.28870  0.04590  0.32750  1.0000 0.0410793386
C   C127      1.0  0.45410  0.78870  0.57750  1.0000 0.0410793386
C   C128      1.0  0.54590  0.21130  0.07750  1.0000 0.0410793386
C   C129      1.0  0.82200  0.53250  0.45100  1.0000 -0.1400547839
C   C130      1.0  0.17800  0.46750  0.95100  1.0000 -0.1400547839
C   C131      1.0  0.96750  0.32200  0.70100  1.0000 -0.1400547839
C   C132      1.0  0.03250  0.67800  0.20100  1.0000 -0.1400547839
C   C133      1.0  0.67800  0.03250  0.79900  1.0000 -0.1400547839
C   C134      1.0  0.32200  0.96750  0.29900  1.0000 -0.1400547839
C   C135      1.0  0.53250  0.82200  0.54900  1.0000 -0.1400547839
C   C136      1.0  0.46750  0.17800  0.04900  1.0000 -0.1400547839
C   C137      1.0  0.89250  0.51390  0.48300  1.0000 -0.1096302672
C   C138      1.0  0.10750  0.48610  0.98300  1.0000 -0.1096302672
C   C139      1.0  0.98610  0.39250  0.73300  1.0000 -0.1096302672
C   C140      1.0  0.01390  0.60750  0.23300  1.0000 -0.1096302672
C   C141      1.0  0.60750  0.01390  0.76700  1.0000 -0.1096302672
C   C142      1.0  0.39250  0.98610  0.26700  1.0000 -0.1096302672
C   C143      1.0  0.51390  0.89250  0.51700  1.0000 -0.1096302672
C   C144      1.0  0.48610  0.10750  0.01700  1.0000 -0.1096302672
C   C145      1.0  0.93210  0.41410  0.48730  1.0000 0.0097322035
C   C146      1.0  0.06790  0.58590  0.98730  1.0000 0.0097322035
C   C147      1.0  0.08590  0.43210  0.73730  1.0000 0.0097322035
C   C148      1.0  0.91410  0.56790  0.23730  1.0000 0.0097322035
C   C149      1.0  0.56790  0.91410  0.76270  1.0000 0.0097322035
C   C150      1.0  0.43210  0.08590  0.26270  1.0000 0.0097322035
C   C151      1.0  0.41410  0.93210  0.51270  1.0000 0.0097322035
C   C152      1.0  0.58590  0.06790  0.01270  1.0000 0.0097322035
C   C153      1.0  0.88730  0.34110  0.45840  1.0000 0.0488660721
C   C154      1.0  0.11270  0.65890  0.95840  1.0000 0.0488660721
C   C155      1.0  0.15890  0.38730  0.70840  1.0000 0.0488660721
C   C156      1.0  0.84110  0.61270  0.20840  1.0000 0.0488660721
C   C157      1.0  0.61270  0.84110  0.79160  1.0000 0.0488660721
C   C158      1.0  0.38730  0.15890  0.29160  1.0000 0.0488660721
C   C159      1.0  0.34110  0.88730  0.54160  1.0000 0.0488660721
C   C160      1.0  0.65890  0.11270  0.04160  1.0000 0.0488660721
N   N1        1.0  0.16980  0.33210  0.58010  1.0000 -0.2173204184
N   N2        1.0  0.83020  0.66790  0.08010  1.0000 -0.2173204184
N   N3        1.0  0.16790  0.66980  0.83010  1.0000 -0.2173204184
N   N4        1.0  0.83210  0.33020  0.33010  1.0000 -0.2173204184
N   N5        1.0  0.33020  0.83210  0.66990  1.0000 -0.2173204184
N   N6        1.0  0.66980  0.16790  0.16990  1.0000 -0.2173204184
N   N7        1.0  0.33210  0.16980  0.41990  1.0000 -0.2173204184
N   N8        1.0  0.66790  0.83020  0.91990  1.0000 -0.2173204184
N   N9        1.0  0.38320  0.23960  0.59130  1.0000 -0.206414667
N   N10       1.0  0.61680  0.76040  0.09130  1.0000 -0.206414667
N   N11       1.0  0.26040  0.88320  0.84130  1.0000 -0.206414667
N   N12       1.0  0.73960  0.11680  0.34130  1.0000 -0.206414667
N   N13       1.0  0.11680  0.73960  0.65870  1.0000 -0.206414667
N   N14       1.0  0.88320  0.26040  0.15870  1.0000 -0.206414667
N   N15       1.0  0.23960  0.38320  0.40870  1.0000 -0.206414667
N   N16       1.0  0.76040  0.61680  0.90870  1.0000 -0.206414667
N   N17       1.0  0.73950  0.15920  0.44300  1.0000 -0.201931594
N   N18       1.0  0.26050  0.84080  0.94300  1.0000 -0.201931594
N   N19       1.0  0.34080  0.23950  0.69300  1.0000 -0.201931594
N   N20       1.0  0.65920  0.76050  0.19300  1.0000 -0.201931594
N   N21       1.0  0.76050  0.65920  0.80700  1.0000 -0.201931594
N   N22       1.0  0.23950  0.34080  0.30700  1.0000 -0.201931594
N   N23       1.0  0.15920  0.73950  0.55700  1.0000 -0.201931594
N   N24       1.0  0.84080  0.26050  0.05700  1.0000 -0.201931594
N   N25       1.0  0.82110  0.35840  0.42690  1.0000 -0.1854191824
N   N26       1.0  0.17890  0.64160  0.92690  1.0000 -0.1854191824
N   N27       1.0  0.14160  0.32110  0.67690  1.0000 -0.1854191824
N   N28       1.0  0.85840  0.67890  0.17690  1.0000 -0.1854191824
N   N29       1.0  0.67890  0.85840  0.82310  1.0000 -0.1854191824
N   N30       1.0  0.32110  0.14160  0.32310  1.0000 -0.1854191824
N   N31       1.0  0.35840  0.82110  0.57310  1.0000 -0.1854191824
N   N32       1.0  0.64160  0.17890  0.07310  1.0000 -0.1854191824
O   O1        1.0  0.31860  0.42230  0.63690  1.0000 -0.7759681924
O   O2        1.0  0.68140  0.57770  0.13690  1.0000 -0.7759681924
O   O3        1.0  0.07770  0.81860  0.88690  1.0000 -0.7759681924
O   O4        1.0  0.92230  0.18140  0.38690  1.0000 -0.774855842
O   O5        1.0  0.18140  0.92230  0.61310  1.0000 -0.7759681924
O   O6        1.0  0.81860  0.07770  0.11310  1.0000 -0.7759681924
O   O7        1.0  0.42230  0.31860  0.36310  1.0000 -0.7759681924
O   O8        1.0  0.57770  0.68140  0.86310  1.0000 -0.7759681924
O   O9        1.0  0.29400  0.63750  0.62470  1.0000 -0.7521899539
O   O10       1.0  0.70600  0.36250  0.12470  1.0000 -0.7521899539
O   O11       1.0  0.86250  0.79400  0.87470  1.0000 -0.7521899539
O   O12       1.0  0.13750  0.20600  0.37470  1.0000 -0.7521899539
O   O13       1.0  0.20600  0.13750  0.62530  1.0000 -0.7521899539
O   O14       1.0  0.79400  0.86250  0.12530  1.0000 -0.7521899539
O   O15       1.0  0.63750  0.29400  0.37530  1.0000 -0.7521899539
O   O16       1.0  0.36250  0.70600  0.87530  1.0000 -0.7521899539
