# DDEC6 charges by PACMAN v1.1 (https://github.com/mtap-research/PACMAN-charge/)
data_2006[Zn][pcu]3[ASR]7
_chemical_formula_sum              "Zn8 H24 C48 O26"
_cell_length_a       18.3014
_cell_length_b       18.3014
_cell_length_c       18.3014
_cell_angle_alpha    60
_cell_angle_beta     60
_cell_angle_gamma    60

_symmetry_space_group_name_H-M    "P 1"
_symmetry_Int_Tables_number       1

loop_
  _symmetry_equiv_pos_as_xyz
  'x, y, z'

loop_
  _atom_site_type_symbol
  _atom_site_label
  _atom_site_symmetry_multiplicity
  _atom_site_fract_x
  _atom_site_fract_y
  _atom_site_fract_z
  _atom_site_occupancy
  _atom_site_charge
Zn  Zn1       1.0  0.20640  0.20640  0.38080  1.0000 0.9623956842
Zn  Zn2       1.0  0.38080  0.20640  0.20640  1.0000 0.9623956842
Zn  Zn3       1.0  0.20640  0.38080  0.20640  1.0000 0.9623956842
Zn  Zn4       1.0  0.79360  0.79360  0.79360  1.0000 0.9623956842
Zn  Zn5       1.0  0.61920  0.79360  0.79360  1.0000 0.9623956842
Zn  Zn6       1.0  0.79360  0.61920  0.79360  1.0000 0.9623956842
Zn  Zn7       1.0  0.79360  0.79360  0.61920  1.0000 0.9653314172
Zn  Zn8       1.0  0.20640  0.20640  0.20640  1.0000 0.9623956842
H   H1        1.0  0.33730  0.04850  0.56570  1.0000 0.1222963051
H   H2        1.0  0.56570  0.33730  0.04850  1.0000 0.1222963051
H   H3        1.0  0.04850  0.56570  0.33730  1.0000 0.1222963051
H   H4        1.0  0.66270  0.95150  0.95150  1.0000 0.1222963051
H   H5        1.0  0.43430  0.95150  0.95150  1.0000 0.1222963051
H   H6        1.0  0.95150  0.43430  0.66270  1.0000 0.1222963051
H   H7        1.0  0.43430  0.66270  0.95150  1.0000 0.1222963051
H   H8        1.0  0.95150  0.95150  0.43430  1.0000 0.1222963051
H   H9        1.0  0.95150  0.95150  0.66270  1.0000 0.1222963051
H   H10       1.0  0.95150  0.43430  0.95150  1.0000 0.1222963051
H   H11       1.0  0.66270  0.95150  0.43430  1.0000 0.1222963051
H   H12       1.0  0.95150  0.66270  0.95150  1.0000 0.1222963051
H   H13       1.0  0.04850  0.33730  0.04850  1.0000 0.1222963051
H   H14       1.0  0.56570  0.04850  0.33730  1.0000 0.1222963051
H   H15       1.0  0.04850  0.56570  0.04850  1.0000 0.1222963051
H   H16       1.0  0.04850  0.04850  0.33730  1.0000 0.1222963051
H   H17       1.0  0.33730  0.56570  0.04850  1.0000 0.1222963051
H   H18       1.0  0.04850  0.04850  0.56570  1.0000 0.1222963051
H   H19       1.0  0.33730  0.04850  0.04850  1.0000 0.1222963051
H   H20       1.0  0.04850  0.33730  0.56570  1.0000 0.1222963051
H   H21       1.0  0.56570  0.04850  0.04850  1.0000 0.1222963051
H   H22       1.0  0.95150  0.66270  0.43430  1.0000 0.1222963051
H   H23       1.0  0.66270  0.43430  0.95150  1.0000 0.1222963051
H   H24       1.0  0.43430  0.95150  0.66270  1.0000 0.1222963051
C   C1        1.0  0.38950  0.11050  0.38950  1.0000 0.5927300622
C   C2        1.0  0.38950  0.38950  0.11050  1.0000 0.5927300622
C   C3        1.0  0.11050  0.38950  0.38950  1.0000 0.5927300622
C   C4        1.0  0.61050  0.88950  0.88950  1.0000 0.5927300622
C   C5        1.0  0.88950  0.61050  0.61050  1.0000 0.5927300622
C   C6        1.0  0.61050  0.61050  0.88950  1.0000 0.5927300622
C   C7        1.0  0.88950  0.88950  0.61050  1.0000 0.5927300622
C   C8        1.0  0.88950  0.61050  0.88950  1.0000 0.5927300622
C   C9        1.0  0.61050  0.88950  0.61050  1.0000 0.5927300622
C   C10       1.0  0.11050  0.38950  0.11050  1.0000 0.5927300622
C   C11       1.0  0.11050  0.11050  0.38950  1.0000 0.5927300622
C   C12       1.0  0.38950  0.11050  0.11050  1.0000 0.5927300622
C   C13       1.0  0.44570  0.05430  0.44570  1.0000 -0.0592890918
C   C14       1.0  0.44570  0.44570  0.05430  1.0000 -0.0592890918
C   C15       1.0  0.05430  0.44570  0.44570  1.0000 -0.0592890918
C   C16       1.0  0.55430  0.94570  0.94570  1.0000 -0.0592890918
C   C17       1.0  0.94570  0.55430  0.55430  1.0000 -0.0592890918
C   C18       1.0  0.55430  0.55430  0.94570  1.0000 -0.0592890918
C   C19       1.0  0.94570  0.94570  0.55430  1.0000 -0.0592890918
C   C20       1.0  0.94570  0.55430  0.94570  1.0000 -0.0592890918
C   C21       1.0  0.55430  0.94570  0.55430  1.0000 -0.0592890918
C   C22       1.0  0.05430  0.44570  0.05430  1.0000 -0.0592890918
C   C23       1.0  0.05430  0.05430  0.44570  1.0000 -0.0592890918
C   C24       1.0  0.44570  0.05430  0.05430  1.0000 -0.0592890918
C   C25       1.0  0.40800  0.02640  0.53920  1.0000 -0.0851331272
C   C26       1.0  0.53920  0.40800  0.02640  1.0000 -0.084105301
C   C27       1.0  0.02640  0.53920  0.40800  1.0000 -0.0851331272
C   C28       1.0  0.59200  0.97360  0.97360  1.0000 -0.084105301
C   C29       1.0  0.46080  0.97360  0.97360  1.0000 -0.084105301
C   C30       1.0  0.97360  0.46080  0.59200  1.0000 -0.0851331272
C   C31       1.0  0.46080  0.59200  0.97360  1.0000 -0.0851331272
C   C32       1.0  0.97360  0.97360  0.46080  1.0000 -0.084105301
C   C33       1.0  0.97360  0.97360  0.59200  1.0000 -0.0851331272
C   C34       1.0  0.97360  0.46080  0.97360  1.0000 -0.084105301
C   C35       1.0  0.59200  0.97360  0.46080  1.0000 -0.0851331272
C   C36       1.0  0.97360  0.59200  0.97360  1.0000 -0.084105301
C   C37       1.0  0.02640  0.40800  0.02640  1.0000 -0.084105301
C   C38       1.0  0.53920  0.02640  0.40800  1.0000 -0.0851331272
C   C39       1.0  0.02640  0.53920  0.02640  1.0000 -0.084105301
C   C40       1.0  0.02640  0.02640  0.40800  1.0000 -0.0851331272
C   C41       1.0  0.40800  0.53920  0.02640  1.0000 -0.084105301
C   C42       1.0  0.02640  0.02640  0.53920  1.0000 -0.0851331272
C   C43       1.0  0.40800  0.02640  0.02640  1.0000 -0.084105301
C   C44       1.0  0.02640  0.40800  0.53920  1.0000 -0.084105301
C   C45       1.0  0.53920  0.02640  0.02640  1.0000 -0.084105301
C   C46       1.0  0.97360  0.59200  0.46080  1.0000 -0.0851331272
C   C47       1.0  0.59200  0.46080  0.97360  1.0000 -0.0851331272
C   C48       1.0  0.46080  0.97360  0.59200  1.0000 -0.0851331272
O   O1        1.0  0.25000  0.25000  0.25000  1.0000 -1.0298428119
O   O2        1.0  0.75000  0.75000  0.75000  1.0000 -1.0298428119
O   O3        1.0  0.30510  0.13330  0.42830  1.0000 -0.5394982254
O   O4        1.0  0.42830  0.30510  0.13330  1.0000 -0.5394982254
O   O5        1.0  0.13330  0.42830  0.30510  1.0000 -0.5394982254
O   O6        1.0  0.69490  0.86670  0.86670  1.0000 -0.5394982254
O   O7        1.0  0.57170  0.86670  0.86670  1.0000 -0.5394982254
O   O8        1.0  0.86670  0.57170  0.69490  1.0000 -0.5394982254
O   O9        1.0  0.57170  0.69490  0.86670  1.0000 -0.5394982254
O   O10       1.0  0.86670  0.86670  0.57170  1.0000 -0.5394982254
O   O11       1.0  0.86670  0.86670  0.69490  1.0000 -0.5394982254
O   O12       1.0  0.86670  0.57170  0.86670  1.0000 -0.5394982254
O   O13       1.0  0.69490  0.86670  0.57170  1.0000 -0.5394982254
O   O14       1.0  0.86670  0.69490  0.86670  1.0000 -0.5394982254
O   O15       1.0  0.13330  0.30510  0.13330  1.0000 -0.5394982254
O   O16       1.0  0.42830  0.13330  0.30510  1.0000 -0.5394982254
O   O17       1.0  0.13330  0.42830  0.13330  1.0000 -0.5394982254
O   O18       1.0  0.13330  0.13330  0.30510  1.0000 -0.5394982254
O   O19       1.0  0.30510  0.42830  0.13330  1.0000 -0.5394982254
O   O20       1.0  0.13330  0.13330  0.42830  1.0000 -0.5394982254
O   O21       1.0  0.30510  0.13330  0.13330  1.0000 -0.5394982254
O   O22       1.0  0.13330  0.30510  0.42830  1.0000 -0.5394982254
O   O23       1.0  0.42830  0.13330  0.13330  1.0000 -0.5394982254
O   O24       1.0  0.86670  0.69490  0.57170  1.0000 -0.5394982254
O   O25       1.0  0.69490  0.57170  0.86670  1.0000 -0.5394982254
O   O26       1.0  0.57170  0.86670  0.69490  1.0000 -0.5394982254
