# DDEC6 charges by PACMAN v1.1 (https://github.com/mtap-research/PACMAN-charge/)
data_2012[Co][ecu]3[ASR]4
_chemical_formula_sum              "Co8 H72 C96 N16 O36"
_cell_length_a       11.3749
_cell_length_b       13.3596
_cell_length_c       25.9691
_cell_angle_alpha    90
_cell_angle_beta     90
_cell_angle_gamma    90

_symmetry_space_group_name_H-M    "P 1"
_symmetry_Int_Tables_number       1

loop_
  _symmetry_equiv_pos_as_xyz
  'x, y, z'

loop_
  _atom_site_type_symbol
  _atom_site_label
  _atom_site_symmetry_multiplicity
  _atom_site_fract_x
  _atom_site_fract_y
  _atom_site_fract_z
  _atom_site_occupancy
  _atom_site_charge
Co  Co1       1.0  0.16192  0.94110  0.92105  1.0000 0.8812269459
Co  Co2       1.0  0.33808  0.05890  0.42105  1.0000 0.8812269459
Co  Co3       1.0  0.66192  0.55890  0.07895  1.0000 0.8812269459
Co  Co4       1.0  0.83808  0.44110  0.57895  1.0000 0.8812269459
Co  Co5       1.0  0.90589  0.05630  0.86162  1.0000 0.8812269459
Co  Co6       1.0  0.59411  0.94370  0.36162  1.0000 0.8812269459
Co  Co7       1.0  0.40589  0.44370  0.13838  1.0000 0.8812269459
Co  Co8       1.0  0.09411  0.55630  0.63838  1.0000 0.8812269459
H   H1        1.0  0.13570  0.09070  0.85540  1.0000 0.3811692449
H   H2        1.0  0.36430  0.90930  0.35540  1.0000 0.3811692449
H   H3        1.0  0.63570  0.40930  0.14460  1.0000 0.3811692449
H   H4        1.0  0.86430  0.59070  0.64460  1.0000 0.3811692449
H   H5        1.0  0.09270  0.12880  0.91060  1.0000 0.3811692449
H   H6        1.0  0.40730  0.87120  0.41060  1.0000 0.3811692449
H   H7        1.0  0.59270  0.37120  0.08940  1.0000 0.3811692449
H   H8        1.0  0.90730  0.62880  0.58940  1.0000 0.3811692449
H   H9        1.0  0.69140  0.18940  0.83510  1.0000 0.1091528158
H   H10       1.0  0.80860  0.81060  0.33510  1.0000 0.1091528158
H   H11       1.0  0.19140  0.31060  0.16490  1.0000 0.1091528158
H   H12       1.0  0.30860  0.68940  0.66490  1.0000 0.1091528158
H   H13       1.0  0.71320  0.89760  0.84430  1.0000 0.1091528158
H   H14       1.0  0.78680  0.10240  0.34430  1.0000 0.1091528158
H   H15       1.0  0.21320  0.60240  0.15570  1.0000 0.1091528158
H   H16       1.0  0.28680  0.39760  0.65570  1.0000 0.1091528158
H   H17       1.0  0.63530  0.68820  0.98290  1.0000 0.1016775903
H   H18       1.0  0.86470  0.31180  0.48290  1.0000 0.1016775903
H   H19       1.0  0.13530  0.81180  0.01710  1.0000 0.1016775903
H   H20       1.0  0.36470  0.18820  0.51710  1.0000 0.1016775903
H   H21       1.0  0.72660  0.81390  0.93750  1.0000 0.1380288045
H   H22       1.0  0.77340  0.18610  0.43750  1.0000 0.1380288045
H   H23       1.0  0.22660  0.68610  0.06250  1.0000 0.1380288045
H   H24       1.0  0.27340  0.31390  0.56250  1.0000 0.1380288045
H   H25       1.0  0.95890  0.74760  0.66570  1.0000 0.1091528158
H   H26       1.0  0.54110  0.25240  0.16570  1.0000 0.1091528158
H   H27       1.0  0.45890  0.75240  0.33430  1.0000 0.1091528158
H   H28       1.0  0.04110  0.24760  0.83430  1.0000 0.1091528158
H   H29       1.0  0.95210  0.84440  0.05260  1.0000 0.1330927724
H   H30       1.0  0.54790  0.15560  0.55260  1.0000 0.1330927724
H   H31       1.0  0.45210  0.65560  0.94740  1.0000 0.1330927724
H   H32       1.0  0.04790  0.34440  0.44740  1.0000 0.1330927724
H   H33       1.0  0.41430  0.00520  0.95470  1.0000 0.0926289933
H   H34       1.0  0.08570  0.99480  0.45470  1.0000 0.0926289933
H   H35       1.0  0.91430  0.49480  0.04530  1.0000 0.0926289933
H   H36       1.0  0.58570  0.50520  0.54530  1.0000 0.0926289933
H   H37       1.0  0.15630  0.57990  0.75360  1.0000 0.1016775903
H   H38       1.0  0.34370  0.42010  0.25360  1.0000 0.1016775903
H   H39       1.0  0.65630  0.92010  0.24640  1.0000 0.1016775903
H   H40       1.0  0.84370  0.07990  0.74640  1.0000 0.1016775903
H   H41       1.0  0.48910  0.18200  0.83380  1.0000 0.1380288045
H   H42       1.0  0.01090  0.81800  0.33380  1.0000 0.1380288045
H   H43       1.0  0.98910  0.31800  0.16620  1.0000 0.1380288045
H   H44       1.0  0.51090  0.68200  0.66620  1.0000 0.1380288045
H   H45       1.0  0.50870  0.12610  0.00400  1.0000 0.1330927724
H   H46       1.0  0.99130  0.87390  0.50400  1.0000 0.1330927724
H   H47       1.0  0.00870  0.37390  0.99600  1.0000 0.1330927724
H   H48       1.0  0.49130  0.62610  0.49600  1.0000 0.1330927724
H   H49       1.0  0.85240  0.71950  0.09600  1.0000 0.1091528158
H   H50       1.0  0.64760  0.28050  0.59600  1.0000 0.1091528158
H   H51       1.0  0.35240  0.78050  0.90400  1.0000 0.1091528158
H   H52       1.0  0.14760  0.21950  0.40400  1.0000 0.1091528158
H   H53       1.0  0.92650  0.85940  0.73330  1.0000 0.1330927724
H   H54       1.0  0.57350  0.14060  0.23330  1.0000 0.1330927724
H   H55       1.0  0.42650  0.64060  0.26670  1.0000 0.1330927724
H   H56       1.0  0.07350  0.35940  0.76670  1.0000 0.1330927724
H   H57       1.0  0.19380  0.21210  0.05910  1.0000 0.1330927724
H   H58       1.0  0.30620  0.78790  0.55910  1.0000 0.1330927724
H   H59       1.0  0.69380  0.28790  0.94090  1.0000 0.1330927724
H   H60       1.0  0.80620  0.71210  0.44090  1.0000 0.1330927724
H   H61       1.0  0.51090  0.88390  0.84520  1.0000 0.1330927724
H   H62       1.0  0.98910  0.11610  0.34520  1.0000 0.1330927724
H   H63       1.0  0.01090  0.61610  0.15480  1.0000 0.1330927724
H   H64       1.0  0.48910  0.38390  0.65480  1.0000 0.1330927724
H   H65       1.0  0.14030  0.69070  0.82090  1.0000 0.1330927724
H   H66       1.0  0.35970  0.30930  0.32090  1.0000 0.1330927724
H   H67       1.0  0.64030  0.80930  0.17910  1.0000 0.1330927724
H   H68       1.0  0.85970  0.19070  0.67910  1.0000 0.1330927724
H   H69       1.0  0.10780  0.08950  0.01040  1.0000 0.1091528158
H   H70       1.0  0.39220  0.91050  0.51040  1.0000 0.1091528158
H   H71       1.0  0.60780  0.41050  0.98960  1.0000 0.1091528158
H   H72       1.0  0.89220  0.58950  0.48960  1.0000 0.1091528158
C   C1        1.0  0.65430  0.12580  0.83750  1.0000 0.0721142206
C   C2        1.0  0.84570  0.87420  0.33750  1.0000 0.0721142206
C   C3        1.0  0.15430  0.37420  0.16250  1.0000 0.0721142206
C   C4        1.0  0.34570  0.62580  0.66250  1.0000 0.0721142206
C   C5        1.0  0.66710  0.95680  0.84310  1.0000 0.0784740627
C   C6        1.0  0.83290  0.04320  0.34310  1.0000 0.0784740627
C   C7        1.0  0.16710  0.54320  0.15690  1.0000 0.0784740627
C   C8        1.0  0.33290  0.45680  0.65690  1.0000 0.0784740627
C   C9        1.0  0.70270  0.71920  0.99760  1.0000 0.0721142206
C   C10       1.0  0.79730  0.28080  0.49760  1.0000 0.0721142206
C   C11       1.0  0.20270  0.78080  0.00240  1.0000 0.0721142206
C   C12       1.0  0.29730  0.21920  0.50240  1.0000 0.0721142206
C   C13       1.0  0.75670  0.79470  0.97020  1.0000 -0.1659591177
C   C14       1.0  0.74330  0.20530  0.47020  1.0000 -0.1659591177
C   C15       1.0  0.25670  0.70530  0.02980  1.0000 -0.1659591177
C   C16       1.0  0.24330  0.29470  0.52980  1.0000 -0.1659591177
C   C17       1.0  0.99510  0.73530  0.69810  1.0000 0.0721142206
C   C18       1.0  0.50490  0.26470  0.19810  1.0000 0.0721142206
C   C19       1.0  0.49510  0.76470  0.30190  1.0000 0.0721142206
C   C20       1.0  0.00490  0.23530  0.80190  1.0000 0.0721142206
C   C21       1.0  0.88660  0.81250  0.03690  1.0000 -0.1806922813
C   C22       1.0  0.61340  0.18750  0.53690  1.0000 -0.1806922813
C   C23       1.0  0.38660  0.68750  0.96310  1.0000 -0.1806922813
C   C24       1.0  0.11340  0.31250  0.46310  1.0000 -0.1806922813
C   C25       1.0  0.42210  0.26680  0.06620  1.0000 0.5618198628
C   C26       1.0  0.07790  0.73320  0.56620  1.0000 0.5618198628
C   C27       1.0  0.92210  0.23320  0.93380  1.0000 0.5618198628
C   C28       1.0  0.57790  0.76680  0.43380  1.0000 0.5618198628
C   C29       1.0  0.36900  0.04830  0.97600  1.0000 0.0620065595
C   C30       1.0  0.13100  0.95170  0.47600  1.0000 0.0620065595
C   C31       1.0  0.86900  0.45170  0.02400  1.0000 0.0620065595
C   C32       1.0  0.63100  0.54830  0.52400  1.0000 0.0620065595
C   C33       1.0  0.11090  0.63890  0.74880  1.0000 0.0721142206
C   C34       1.0  0.38910  0.36110  0.24880  1.0000 0.0721142206
C   C35       1.0  0.61090  0.86110  0.25120  1.0000 0.0721142206
C   C36       1.0  0.88910  0.13890  0.75120  1.0000 0.0721142206
C   C37       1.0  0.53330  0.12210  0.83720  1.0000 -0.1593649907
C   C38       1.0  0.96670  0.87790  0.33720  1.0000 -0.1593649907
C   C39       1.0  0.03330  0.37790  0.16280  1.0000 -0.1593649907
C   C40       1.0  0.46670  0.62210  0.66280  1.0000 -0.1593649907
C   C41       1.0  0.42550  0.12070  0.00520  1.0000 -0.1593649907
C   C42       1.0  0.07450  0.87930  0.50520  1.0000 -0.1593649907
C   C43       1.0  0.92550  0.37930  0.99480  1.0000 -0.1593649907
C   C44       1.0  0.57450  0.62070  0.49480  1.0000 -0.1593649907
C   C45       1.0  0.01950  0.86470  0.82708  1.0000 0.5893860971
C   C46       1.0  0.48050  0.13530  0.32708  1.0000 0.584964108
C   C47       1.0  0.51950  0.63530  0.17292  1.0000 0.584964108
C   C48       1.0  0.98050  0.36470  0.67292  1.0000 0.5893860971
C   C49       1.0  0.85040  0.84090  0.98920  1.0000 0.0353527109
C   C50       1.0  0.64960  0.15910  0.48920  1.0000 0.0353527109
C   C51       1.0  0.35040  0.65910  0.01080  1.0000 0.0353527109
C   C52       1.0  0.14960  0.34090  0.51080  1.0000 0.0353527109
C   C53       1.0  0.82730  0.73680  0.06230  1.0000 0.0784740627
C   C54       1.0  0.67270  0.26320  0.56230  1.0000 0.0784740627
C   C55       1.0  0.32730  0.76320  0.93770  1.0000 0.0784740627
C   C56       1.0  0.17270  0.23680  0.43770  1.0000 0.0784740627
C   C57       1.0  0.97690  0.80340  0.73800  1.0000 -0.1478849982
C   C58       1.0  0.52310  0.19660  0.23800  1.0000 -0.1478849982
C   C59       1.0  0.47690  0.69660  0.26200  1.0000 -0.1478849982
C   C60       1.0  0.02310  0.30340  0.76200  1.0000 -0.1478849982
C   C61       1.0  0.91530  0.91910  0.95810  1.0000 0.5893860971
C   C62       1.0  0.58470  0.08090  0.45810  1.0000 0.5893860971
C   C63       1.0  0.41530  0.58090  0.04190  1.0000 0.5893860971
C   C64       1.0  0.08470  0.41910  0.54190  1.0000 0.5893860971
C   C65       1.0  0.03270  0.78830  0.78400  1.0000 0.0305079793
C   C66       1.0  0.46730  0.21170  0.28400  1.0000 0.0305079793
C   C67       1.0  0.53270  0.71170  0.21600  1.0000 0.0305079793
C   C68       1.0  0.96730  0.28830  0.71600  1.0000 0.0305079793
C   C69       1.0  0.24120  0.17100  0.03770  1.0000 -0.1478849982
C   C70       1.0  0.25880  0.82900  0.53770  1.0000 -0.1478849982
C   C71       1.0  0.74120  0.32900  0.96230  1.0000 -0.1478849982
C   C72       1.0  0.75880  0.67100  0.46230  1.0000 -0.1478849982
C   C73       1.0  0.54630  0.94820  0.84360  1.0000 -0.1659591177
C   C74       1.0  0.95370  0.05180  0.34360  1.0000 -0.1659591177
C   C75       1.0  0.04630  0.55180  0.15640  1.0000 -0.1659591177
C   C76       1.0  0.45370  0.44820  0.65640  1.0000 -0.1659591177
C   C77       1.0  0.10080  0.70390  0.78940  1.0000 -0.1593649907
C   C78       1.0  0.39920  0.29610  0.28940  1.0000 -0.1593649907
C   C79       1.0  0.60080  0.79610  0.21060  1.0000 -0.1593649907
C   C80       1.0  0.89920  0.20390  0.71060  1.0000 -0.1593649907
C   C81       1.0  0.19060  0.09790  0.00840  1.0000 0.0926289933
C   C82       1.0  0.30940  0.90210  0.50840  1.0000 0.0926289933
C   C83       1.0  0.69060  0.40210  0.99160  1.0000 0.0926289933
C   C84       1.0  0.80940  0.59790  0.49160  1.0000 0.0926289933
C   C85       1.0  0.36120  0.18500  0.03600  1.0000 0.0305079793
C   C86       1.0  0.13880  0.81500  0.53600  1.0000 0.0305079793
C   C87       1.0  0.86120  0.31500  0.96400  1.0000 0.0305079793
C   C88       1.0  0.63880  0.68500  0.46400  1.0000 0.0305079793
C   C89       1.0  0.47700  0.03260  0.84190  1.0000 0.0238384011
C   C90       1.0  0.02300  0.96740  0.34190  1.0000 0.0238384011
C   C91       1.0  0.97700  0.46740  0.15810  1.0000 0.0238384011
C   C92       1.0  0.52300  0.53260  0.65810  1.0000 0.0238384011
C   C93       1.0  0.34430  0.02810  0.84980  1.0000 0.5618198628
C   C94       1.0  0.15570  0.97190  0.34980  1.0000 0.5618198628
C   C95       1.0  0.84430  0.47190  0.15020  1.0000 0.5618198628
C   C96       1.0  0.65570  0.52810  0.65020  1.0000 0.5618198628
N   N1        1.0  0.72160  0.04500  0.84100  1.0000 -0.2267620822
N   N2        1.0  0.77840  0.95500  0.34100  1.0000 -0.2267620822
N   N3        1.0  0.22160  0.45500  0.15900  1.0000 -0.2267620822
N   N4        1.0  0.27840  0.54500  0.65900  1.0000 -0.2267620822
N   N5        1.0  0.25090  0.03760  0.97729  1.0000 -0.2508938385
N   N6        1.0  0.24910  0.96240  0.47729  1.0000 -0.2508938385
N   N7        1.0  0.75090  0.46240  0.02271  1.0000 -0.2508938385
N   N8        1.0  0.74910  0.53760  0.52271  1.0000 -0.2508938385
N   N9        1.0  0.06160  0.65300  0.70354  1.0000 -0.2508938385
N   N10       1.0  0.43840  0.34700  0.20354  1.0000 -0.2508938385
N   N11       1.0  0.56160  0.84700  0.29646  1.0000 -0.2508938385
N   N12       1.0  0.93840  0.15300  0.79646  1.0000 -0.2508938385
N   N13       1.0  0.73900  0.68780  0.04268  1.0000 -0.2159283904
N   N14       1.0  0.76100  0.31220  0.54268  1.0000 -0.2159283904
N   N15       1.0  0.23900  0.81220  0.95732  1.0000 -0.2159283904
N   N16       1.0  0.26100  0.18780  0.45732  1.0000 -0.2159283904
O   O1        1.0  0.08760  0.07270  0.88584  1.0000 -0.7943470364
O   O2        1.0  0.41240  0.92730  0.38584  1.0000 -0.7954447751
O   O3        1.0  0.58760  0.42730  0.11416  1.0000 -0.7954447751
O   O4        1.0  0.91240  0.57270  0.61416  1.0000 -0.7954447751
O   O5        1.0  0.28490  0.10100  0.83558  1.0000 -0.5399711494
O   O6        1.0  0.21510  0.89900  0.33558  1.0000 -0.5399711494
O   O7        1.0  0.78490  0.39900  0.16442  1.0000 -0.5399711494
O   O8        1.0  0.71510  0.60100  0.66442  1.0000 -0.5399711494
O   O9        1.0  0.53000  0.27550  0.05992  1.0000 -0.5460355849
O   O10       1.0  0.97000  0.72450  0.55992  1.0000 -0.5460355849
O   O11       1.0  0.03000  0.22450  0.94008  1.0000 -0.5460355849
O   O12       1.0  0.47000  0.77550  0.44008  1.0000 -0.5460355849
O   O13       1.0  0.35920  0.32020  0.09486  1.0000 -0.5677024608
O   O14       1.0  0.14080  0.67980  0.59486  1.0000 -0.5677024608
O   O15       1.0  0.85920  0.17980  0.90514  1.0000 -0.5677024608
O   O16       1.0  0.64080  0.82020  0.40514  1.0000 -0.5677024608
O   O17       1.0  0.30670  0.95100  0.87258  1.0000 -0.581488121
O   O18       1.0  0.19330  0.04900  0.37258  1.0000 -0.581488121
O   O19       1.0  0.80670  0.54900  0.12742  1.0000 -0.581488121
O   O20       1.0  0.69330  0.45100  0.62742  1.0000 -0.581488121
O   O21       1.0  0.94990  0.93510  0.81775  1.0000 -0.5624347811
O   O22       1.0  0.55010  0.06490  0.31775  1.0000 -0.5624347811
O   O23       1.0  0.44990  0.56490  0.18225  1.0000 -0.5624347811
O   O24       1.0  0.05010  0.43510  0.68225  1.0000 -0.5624347811
O   O25       1.0  0.07970  0.85030  0.86648  1.0000 -0.5460355849
O   O26       1.0  0.42030  0.14970  0.36648  1.0000 -0.5399711494
O   O27       1.0  0.57970  0.64970  0.13352  1.0000 -0.5460355849
O   O28       1.0  0.92030  0.35030  0.63352  1.0000 -0.5460355849
O   O29       1.0  0.86150  0.95960  0.92237  1.0000 -0.5308931058
O   O30       1.0  0.63850  0.04040  0.42237  1.0000 -0.5308931058
O   O31       1.0  0.36150  0.54040  0.07763  1.0000 -0.5308931058
O   O32       1.0  0.13850  0.45960  0.57763  1.0000 -0.5308931058
O   O33       1.0  0.02160  0.93370  0.97104  1.0000 -0.5624347811
O   O34       1.0  0.47840  0.06630  0.47104  1.0000 -0.5624347811
O   O35       1.0  0.52160  0.56630  0.02896  1.0000 -0.5624347811
O   O36       1.0  0.97840  0.43370  0.52896  1.0000 -0.5624347811
