# DDEC6 charges by PACMAN v1.1 (https://github.com/mtap-research/PACMAN-charge/)
data_WASVES_ASR_pacman
_symmetry_space_group_name_H-M   'P 1'
_cell_length_a   12.31920000
_cell_length_b   12.36540000
_cell_length_c   25.11140000
_cell_angle_alpha   81.89700000
_cell_angle_beta   85.38900000
_cell_angle_gamma   88.56400000
_symmetry_Int_Tables_number   1
_chemical_formula_structural   La4Mo12PH2(C5O18)2
_chemical_formula_sum   'La8 Mo24 P2 H4 C20 O72'
_cell_volume   3774.45292194
_cell_formula_units_Z   2
loop_
 _symmetry_equiv_pos_site_id
 _symmetry_equiv_pos_as_xyz
  1  'x, y, z'
loop_
 _atom_site_type_symbol
 _atom_site_label
 _atom_site_symmetry_multiplicity
 _atom_site_fract_x
 _atom_site_fract_y
 _atom_site_fract_z
 _atom_site_occupancy
 _atom_site_charge
La  La1  1  0.27676000  0.90525000  0.41475000  1.0 1.857928838
La  La2  1  0.72324000  0.09475000  0.58525000  1.0 1.857928838
La  La3  1  0.00624000  0.18199000  0.16090000  1.0 1.8475255924
La  La4  1  0.99376000  0.81801000  0.83910000  1.0 1.8475255924
La  La5  1  0.30049000  0.67076000  0.13712000  1.0 1.857928838
La  La6  1  0.69951000  0.32924000  0.86288000  1.0 1.857928838
La  La7  1  0.78226000  0.65936000  0.35019000  1.0 1.8351258592
La  La8  1  0.21774000  0.34064000  0.64981000  1.0 1.82107168
Mo  Mo1  1  0.06410000  0.10159000  0.32857000  1.0 1.7644749241
Mo  Mo2  1  0.93590000  0.89841000  0.67143000  1.0 1.7661569671
Mo  Mo3  1  0.95739000  0.87134000  0.40716000  1.0 2.0086044626
Mo  Mo4  1  0.04261000  0.12866000  0.59284000  1.0 2.0086044626
Mo  Mo5  1  0.82988000  0.98123000  0.29297000  1.0 1.7188451843
Mo  Mo6  1  0.17012000  0.01877000  0.70703000  1.0 1.7140840845
Mo  Mo7  1  0.23883000  0.10502000  0.26152000  1.0 1.7923285322
Mo  Mo8  1  0.76117000  0.89498000  0.73848000  1.0 1.7958814459
Mo  Mo9  1  0.37934000  0.85521000  0.24966000  1.0 1.6871324139
Mo  Mo10  1  0.62066000  0.14479000  0.75034000  1.0 1.6871324139
Mo  Mo11  1  0.25758000  0.99352000  0.14084000  1.0 1.9706179457
Mo  Mo12  1  0.74242000  0.00648000  0.85916000  1.0 1.9706179457
Mo  Mo13  1  0.04991000  0.87902000  0.11087000  1.0 2.0185014562
Mo  Mo14  1  0.95009000  0.12098000  0.88913000  1.0 2.0185014562
Mo  Mo15  1  0.82981000  0.89604000  0.20442000  1.0 1.7495041447
Mo  Mo16  1  0.17019000  0.10396000  0.79558000  1.0 1.7495041447
Mo  Mo17  1  0.97350000  0.64606000  0.19656000  1.0 1.684208806
Mo  Mo18  1  0.02650000  0.35394000  0.80344000  1.0 1.6695843296
Mo  Mo19  1  0.07397000  0.55745000  0.27751000  1.0 1.7354778604
Mo  Mo20  1  0.92603000  0.44255000  0.72249000  1.0 1.7335440473
Mo  Mo21  1  0.31457000  0.67649000  0.30801000  1.0 1.684208806
Mo  Mo22  1  0.68543000  0.32351000  0.69199000  1.0 1.684208806
Mo  Mo23  1  0.08915000  0.65185000  0.39910000  1.0 2.0086044626
Mo  Mo24  1  0.91085000  0.34815000  0.60090000  1.0 2.0086044626
P  P1  1  0.08829000  0.84908000  0.26466000  1.0 1.3773616509
P  P2  1  0.91171000  0.15092000  0.73534000  1.0 1.3773616509
H  H1  1  0.01040000  0.68340000  0.00910000  1.0 0.0841090934
H  H2  1  0.98960000  0.31660000  0.99090000  1.0 0.0841090934
H  H3  1  0.31390000  0.50250000  0.48720000  1.0 0.0726012023
H  H4  1  0.68610000  0.49750000  0.51280000  1.0 0.0726012023
C  C1  1  0.16180000  0.57770000  0.06340000  1.0 0.528224762
C  C2  1  0.83820000  0.42230000  0.93660000  1.0 0.528224762
C  C3  1  0.07770000  0.53570000  0.02890000  1.0 -0.0605321337
C  C4  1  0.92230000  0.46430000  0.97110000  1.0 -0.0605321337
C  C5  1  0.07600000  0.42480000  0.02310000  1.0 -0.0930415351
C  C6  1  0.92400000  0.57520000  0.97690000  1.0 -0.0930415351
C  C7  1  0.00530000  0.60980000  0.00560000  1.0 -0.1404385219
C  C8  1  0.99470000  0.39020000  0.99440000  1.0 -0.1404385219
C  C9  1  0.16060000  0.34010000  0.04710000  1.0 0.528224762
C  C10  1  0.83940000  0.65990000  0.95290000  1.0 0.528224762
C  C11  1  0.55910000  0.59670000  0.48830000  1.0 -0.0930415351
C  C12  1  0.44090000  0.40330000  0.51170000  1.0 -0.0930415351
C  C13  1  0.38790000  0.50170000  0.49230000  1.0 -0.1404385219
C  C14  1  0.61210000  0.49830000  0.50770000  1.0 -0.1404385219
C  C15  1  0.44820000  0.59910000  0.48070000  1.0 -0.0690374511
C  C16  1  0.55180000  0.40090000  0.51930000  1.0 -0.0690374511
C  C17  1  0.38860000  0.70180000  0.45990000  1.0 0.528224762
C  C18  1  0.61140000  0.29820000  0.54010000  1.0 0.528224762
C  C19  1  0.62930000  0.70050000  0.47870000  1.0 0.5538144963
C  C20  1  0.37070000  0.29950000  0.52130000  1.0 0.5538144963
O  O1  1  0.08600000  0.13470000  0.24990000  1.0 -1.0370961471
O  O2  1  0.91400000  0.86530000  0.75010000  1.0 -1.0370961471
O  O3  1  0.20490000  0.03150000  0.33380000  1.0 -1.0092816694
O  O4  1  0.79510000  0.96850000  0.66620000  1.0 -1.0029668255
O  O5  1  0.90350000  0.10700000  0.31760000  1.0 -1.0092816694
O  O6  1  0.09650000  0.89300000  0.68240000  1.0 -1.0029668255
O  O7  1  0.02200000  0.00480000  0.39920000  1.0 -0.9206701163
O  O8  1  0.97800000  0.99520000  0.60080000  1.0 -0.9206701163
O  O9  1  0.01950000  0.91580000  0.30280000  1.0 -0.9081625215
O  O10  1  0.98050000  0.08420000  0.69720000  1.0 -0.9081625215
O  O11  1  0.83560000  0.91330000  0.37180000  1.0 -0.9206701163
O  O12  1  0.16440000  0.08670000  0.62820000  1.0 -0.9206701163
O  O13  1  0.10620000  0.80720000  0.40680000  1.0 -1.0712531848
O  O14  1  0.89380000  0.19280000  0.59320000  1.0 -1.0712531848
O  O15  1  0.94490000  0.72350000  0.38730000  1.0 -1.0882838412
O  O16  1  0.05510000  0.27650000  0.61270000  1.0 -1.0882838412
O  O17  1  0.89230000  0.03100000  0.21970000  1.0 -1.0370961471
O  O18  1  0.10770000  0.96900000  0.78030000  1.0 -1.0370961471
O  O19  1  0.81160000  0.82950000  0.27960000  1.0 -1.034048502
O  O20  1  0.18840000  0.17050000  0.72040000  1.0 -1.034048502
O  O21  1  0.37930000  0.01790000  0.26040000  1.0 -1.0092816694
O  O22  1  0.62070000  0.98210000  0.73960000  1.0 -1.0092816694
O  O23  1  0.25220000  0.10980000  0.18100000  1.0 -0.9583992703
O  O24  1  0.74780000  0.89020000  0.81900000  1.0 -0.9583992703
O  O25  1  0.19160000  0.91560000  0.23950000  1.0 -0.9206701163
O  O26  1  0.80840000  0.08440000  0.76050000  1.0 -0.9206701163
O  O27  1  0.32580000  0.82640000  0.32530000  1.0 -0.9780377193
O  O28  1  0.67420000  0.17360000  0.67470000  1.0 -0.9748882098
O  O29  1  0.32240000  0.72090000  0.22850000  1.0 -1.0481969459
O  O30  1  0.67760000  0.27910000  0.77150000  1.0 -1.0481969459
O  O31  1  0.37060000  0.91910000  0.16970000  1.0 -0.9010503137
O  O32  1  0.62940000  0.08090000  0.83030000  1.0 -0.9081625215
O  O33  1  0.09930000  0.01830000  0.13410000  1.0 -1.0882838412
O  O34  1  0.90070000  0.98170000  0.86590000  1.0 -1.0965935631
O  O35  1  0.20190000  0.85000000  0.12760000  1.0 -1.0882838412
O  O36  1  0.79810000  0.15000000  0.87240000  1.0 -1.0882838412
O  O37  1  0.02500000  0.73220000  0.12480000  1.0 -0.870581214
O  O38  1  0.97500000  0.26780000  0.87520000  1.0 -0.8757445259
O  O39  1  0.91100000  0.92730000  0.13110000  1.0 -0.9447131796
O  O40  1  0.08900000  0.07270000  0.86890000  1.0 -0.9447131796
O  O41  1  0.01860000  0.82800000  0.21720000  1.0 -0.9081625215
O  O42  1  0.98140000  0.17200000  0.78280000  1.0 -0.9081625215
O  O43  1  0.83220000  0.73800000  0.18810000  1.0 -1.0029668255
O  O44  1  0.16780000  0.26200000  0.81190000  1.0 -1.0029668255
O  O45  1  0.12610000  0.61940000  0.20580000  1.0 -0.9298892362
O  O46  1  0.87390000  0.38060000  0.79420000  1.0 -0.9298892362
O  O47  1  0.93130000  0.62690000  0.27420000  1.0 -1.0092816694
O  O48  1  0.06870000  0.37310000  0.72580000  1.0 -1.0092816694
O  O49  1  0.04840000  0.55140000  0.35800000  1.0 -0.9010503137
O  O50  1  0.95160000  0.44860000  0.64200000  1.0 -0.9010503137
O  O51  1  0.23660000  0.53710000  0.29230000  1.0 -1.0224783762
O  O52  1  0.76340000  0.46290000  0.70770000  1.0 -1.0224783762
O  O53  1  0.12450000  0.73820000  0.29520000  1.0 -0.9081625215
O  O54  1  0.87550000  0.26180000  0.70480000  1.0 -0.9081625215
O  O55  1  0.23320000  0.64430000  0.38030000  1.0 -0.8504058463
O  O56  1  0.76680000  0.35570000  0.61970000  1.0 -0.8504058463
O  O57  1  0.29830000  0.71900000  0.47960000  1.0 -0.5720507545
O  O58  1  0.70170000  0.28100000  0.52040000  1.0 -0.5720507545
O  O59  1  0.43750000  0.76670000  0.42180000  1.0 -0.6580750389
O  O60  1  0.56250000  0.23330000  0.57820000  1.0 -0.6580750389
O  O61  1  0.12030000  0.25460000  0.07700000  1.0 -0.7275605841
O  O62  1  0.87970000  0.74540000  0.92300000  1.0 -0.7275605841
O  O63  1  0.25570000  0.35820000  0.03490000  1.0 -0.4497052772
O  O64  1  0.74430000  0.64180000  0.96510000  1.0 -0.4429544552
O  O65  1  0.18130000  0.52260000  0.10930000  1.0 -0.6720798357
O  O66  1  0.81870000  0.47740000  0.89070000  1.0 -0.6720798357
O  O67  1  0.20270000  0.66620000  0.04850000  1.0 -0.5839759751
O  O68  1  0.79730000  0.33380000  0.95150000  1.0 -0.5858975096
O  O69  1  0.70950000  0.70060000  0.44370000  1.0 -0.70003051
O  O70  1  0.29050000  0.29940000  0.55630000  1.0 -0.70003051
O  O71  1  0.60040000  0.77690000  0.50610000  1.0 -0.53893501
O  O72  1  0.39960000  0.22310000  0.49390000  1.0 -0.5466133101
