# DDEC6 charges by PACMAN v1.1 (https://github.com/mtap-research/PACMAN-charge/)
data_2010[Al][bpq]3[ASR]1
_chemical_formula_sum              "Al4 H20 C32 O20"
_cell_length_a       6.5603
_cell_length_b       15.9846
_cell_length_c       13.4441
_cell_angle_alpha    90
_cell_angle_beta     90
_cell_angle_gamma    90

_symmetry_space_group_name_H-M    "P 1"
_symmetry_Int_Tables_number       1

loop_
  _symmetry_equiv_pos_as_xyz
  'x, y, z'

loop_
  _atom_site_type_symbol
  _atom_site_label
  _atom_site_symmetry_multiplicity
  _atom_site_fract_x
  _atom_site_fract_y
  _atom_site_fract_z
  _atom_site_occupancy
  _atom_site_charge
Al  Al1       1.0  0.74492  0.00313  0.24597  1.0000 1.6008202766
Al  Al2       1.0  0.24402  0.50270  0.74610  1.0000 1.6008202766
Al  Al3       1.0  0.24461  0.00306  0.24645  1.0000 1.6008202766
Al  Al4       1.0  0.74482  0.50292  0.74655  1.0000 1.6008202766
H   H1        1.0  0.17045  0.80599  0.43035  1.0000 0.1057061654
H   H2        1.0  0.17014  0.68583  0.54288  1.0000 0.1057061654
H   H3        1.0  0.66997  0.30625  0.93116  1.0000 0.1057061654
H   H4        1.0  0.67067  0.18595  0.04338  1.0000 0.1057061654
H   H5        1.0  0.82387  0.19573  0.43623  1.0000 0.1057061654
H   H6        1.0  0.82375  0.31627  0.54840  1.0000 0.1047195082
H   H7        1.0  0.32367  0.69653  0.93516  1.0000 0.1057061654
H   H8        1.0  0.32384  0.81644  0.04830  1.0000 0.1047195082
H   H9        1.0  0.16702  0.19604  0.43588  1.0000 0.1057061654
H   H10       1.0  0.16690  0.31670  0.54784  1.0000 0.1047195082
H   H11       1.0  0.66679  0.69667  0.93499  1.0000 0.1057061654
H   H12       1.0  0.66716  0.81668  0.04790  1.0000 0.1047195082
H   H13       1.0  0.82749  0.80599  0.43057  1.0000 0.1047195082
H   H14       1.0  0.82673  0.68567  0.54345  1.0000 0.1047195082
H   H15       1.0  0.32689  0.30655  0.93093  1.0000 0.1057061654
H   H16       1.0  0.32701  0.18606  0.04347  1.0000 0.1047195082
H   H17       1.0  0.99276  0.50377  0.62882  1.0000 0.4458606576
H   H18       1.0  0.49297  0.50424  0.86374  1.0000 0.4458606576
H   H19       1.0  0.49552  0.00573  0.12915  1.0000 0.4458606576
H   H20       1.0  0.99484  0.00542  0.36402  1.0000 0.4458606576
C   C1        1.0  0.31443  0.78080  0.45533  1.0000 -0.0897394929
C   C2        1.0  0.31412  0.71188  0.51963  1.0000 -0.0897394929
C   C3        1.0  0.81389  0.28106  0.95609  1.0000 -0.0897394929
C   C4        1.0  0.81433  0.21211  0.02018  1.0000 -0.0897394929
C   C5        1.0  0.67963  0.22083  0.46092  1.0000 -0.0897394929
C   C6        1.0  0.67966  0.28995  0.52495  1.0000 -0.0897394929
C   C7        1.0  0.17957  0.72140  0.96020  1.0000 -0.0897394929
C   C8        1.0  0.17980  0.79032  0.02447  1.0000 -0.0897394929
C   C9        1.0  0.31128  0.22104  0.46067  1.0000 -0.0897394929
C   C10       1.0  0.31109  0.29015  0.52475  1.0000 -0.0897394929
C   C11       1.0  0.81110  0.72149  0.96003  1.0000 -0.0897394929
C   C12       1.0  0.81118  0.79041  0.02433  1.0000 -0.0897394929
C   C13       1.0  0.68293  0.78079  0.45556  1.0000 -0.0897394929
C   C14       1.0  0.68242  0.71173  0.51994  1.0000 -0.0897394929
C   C15       1.0  0.18257  0.28125  0.95596  1.0000 -0.0897394929
C   C16       1.0  0.18273  0.21216  0.02013  1.0000 -0.0897394929
C   C17       1.0  0.49777  0.67774  0.55476  1.0000 -0.0375411704
C   C18       1.0  0.49868  0.81729  0.42412  1.0000 -0.0375411704
C   C19       1.0  0.49711  0.60849  0.62870  1.0000 0.6553914284
C   C20       1.0  0.49825  0.89157  0.35713  1.0000 0.6553914284
C   C21       1.0  0.99846  0.17810  0.05512  1.0000 -0.0375411704
C   C22       1.0  0.99778  0.31763  0.92475  1.0000 -0.0375411704
C   C23       1.0  0.99787  0.10874  0.12894  1.0000 0.6546335553
C   C24       1.0  0.99711  0.39186  0.85769  1.0000 0.6546335553
C   C25       1.0  0.49553  0.32474  0.55871  1.0000 -0.0375411704
C   C26       1.0  0.49552  0.18493  0.42861  1.0000 -0.0375411704
C   C27       1.0  0.49571  0.39517  0.63091  1.0000 0.6546335553
C   C28       1.0  0.49518  0.11172  0.36008  1.0000 0.6546335553
C   C29       1.0  0.99560  0.82489  0.05855  1.0000 -0.0375411704
C   C30       1.0  0.99547  0.68558  0.92769  1.0000 -0.0375411704
C   C31       1.0  0.99529  0.89519  0.13114  1.0000 0.6546335553
C   C32       1.0  0.99566  0.61228  0.85908  1.0000 0.6553914284
O   O1        1.0  0.67103  0.92167  0.32894  1.0000 -0.6020772124
O   O2        1.0  0.32415  0.58019  0.65930  1.0000 -0.6020772124
O   O3        1.0  0.17001  0.42137  0.82924  1.0000 -0.6020772124
O   O4        1.0  0.82478  0.08084  0.15944  1.0000 -0.6020772124
O   O5        1.0  0.32219  0.08221  0.33171  1.0000 -0.6020772124
O   O6        1.0  0.66786  0.42340  0.66193  1.0000 -0.6020772124
O   O7        1.0  0.82201  0.58251  0.83135  1.0000 -0.6020772124
O   O8        1.0  0.16814  0.92345  0.16185  1.0000 -0.6020772124
O   O9        1.0  0.66783  0.08220  0.33109  1.0000 -0.6020772124
O   O10       1.0  0.32280  0.42401  0.66023  1.0000 -0.6020772124
O   O11       1.0  0.16857  0.58292  0.82988  1.0000 -0.6020772124
O   O12       1.0  0.82210  0.92390  0.16063  1.0000 -0.6020772124
O   O13       1.0  0.32503  0.92179  0.32948  1.0000 -0.6020772124
O   O14       1.0  0.67036  0.58076  0.65937  1.0000 -0.6020772124
O   O15       1.0  0.82455  0.42236  0.82992  1.0000 -0.6020772124
O   O16       1.0  0.17042  0.08071  0.15975  1.0000 -0.6020772124
O   O17       1.0  0.99486  0.00467  0.29987  1.0000 -0.9368716146
O   O18       1.0  0.49404  0.50392  0.79971  1.0000 -0.9368716146
O   O19       1.0  0.49525  0.00479  0.19327  1.0000 -0.9336589838
O   O20       1.0  0.99393  0.50371  0.69305  1.0000 -0.9336589838
