# DDEC6 charges by PACMAN v1.1 (https://github.com/mtap-research/PACMAN-charge/)
data_WEBKOD_ASR_pacman
_symmetry_space_group_name_H-M   'P 1'
_cell_length_a   12.04950000
_cell_length_b   12.27730000
_cell_length_c   19.10280000
_cell_angle_alpha   91.66900000
_cell_angle_beta   96.85000000
_cell_angle_gamma   117.94500000
_symmetry_Int_Tables_number   1
_chemical_formula_structural   Cd3H20C34N5O11
_chemical_formula_sum   'Cd6 H40 C68 N10 O22'
_cell_volume   2466.97152268
_cell_formula_units_Z   2
loop_
 _symmetry_equiv_pos_site_id
 _symmetry_equiv_pos_as_xyz
  1  'x, y, z'
loop_
 _atom_site_type_symbol
 _atom_site_label
 _atom_site_symmetry_multiplicity
 _atom_site_fract_x
 _atom_site_fract_y
 _atom_site_fract_z
 _atom_site_occupancy
 _atom_site_charge
Cd  Cd1  1  0.23089000  0.49767000  0.22146000  1.0 0.9561507954
Cd  Cd2  1  0.76911000  0.50233000  0.77854000  1.0 0.9561507954
Cd  Cd3  1  0.41141000  0.33031000  0.30188000  1.0 0.8911409481
Cd  Cd4  1  0.58859000  0.66969000  0.69812000  1.0 0.8911409481
Cd  Cd5  1  0.57345000  0.67823000  0.19801000  1.0 0.8911409481
Cd  Cd6  1  0.42655000  0.32177000  0.80199000  1.0 0.8911409481
H  H1  1  0.28690000  0.45720000  0.02680000  1.0 0.12313437
H  H2  1  0.71310000  0.54280000  0.97320000  1.0 0.12313437
H  H3  1  0.29820000  0.42460000  0.90500000  1.0 0.1007561356
H  H4  1  0.70180000  0.57540000  0.09500000  1.0 0.1007561356
H  H5  1  0.91470000  0.66950000  0.22260000  1.0 0.1295978921
H  H6  1  0.08530000  0.33050000  0.77740000  1.0 0.1295978921
H  H7  1  0.78610000  0.35270000  0.31680000  1.0 0.1295978921
H  H8  1  0.21390000  0.64730000  0.68320000  1.0 0.1295978921
H  H9  1  0.27790000  0.85560000  0.31140000  1.0 0.1295978921
H  H10  1  0.72210000  0.14440000  0.68860000  1.0 0.1295978921
H  H11  1  0.54260000  0.01850000  0.18560000  1.0 0.1295978921
H  H12  1  0.45740000  0.98150000  0.81440000  1.0 0.1295978921
H  H13  1  0.54630000  0.20630000  0.21380000  1.0 0.1007561356
H  H14  1  0.45370000  0.79370000  0.78620000  1.0 0.1007561356
H  H15  1  0.28540000  0.04070000  0.33970000  1.0 0.1007561356
H  H16  1  0.71460000  0.95930000  0.66030000  1.0 0.1007561356
H  H17  1  0.10430000  0.66530000  0.21950000  1.0 0.1007561356
H  H18  1  0.89570000  0.33470000  0.78050000  1.0 0.1007561356
H  H19  1  0.97190000  0.34830000  0.30780000  1.0 0.1058916553
H  H20  1  0.02810000  0.65170000  0.69220000  1.0 0.1058916553
H  H21  1  0.03320000  0.99560000  0.32930000  1.0 0.1295978921
H  H22  1  0.96680000  0.00440000  0.67070000  1.0 0.1295978921
H  H23  1  0.90210000  0.14110000  0.17250000  1.0 0.13563859
H  H24  1  0.09790000  0.85890000  0.82750000  1.0 0.13563859
H  H25  1  0.84340000  0.81750000  0.30500000  1.0 0.1007561356
H  H26  1  0.15660000  0.18250000  0.69500000  1.0 0.1007561356
H  H27  1  0.71800000  0.95180000  0.14980000  1.0 0.1007561356
H  H28  1  0.28200000  0.04820000  0.85020000  1.0 0.1007561356
H  H29  1  0.69510000  0.75770000  0.44100000  1.0 0.1295978921
H  H30  1  0.30490000  0.24230000  0.55900000  1.0 0.1295978921
H  H31  1  0.31780000  0.52550000  0.44240000  1.0 0.13563859
H  H32  1  0.68220000  0.47450000  0.55760000  1.0 0.13563859
H  H33  1  0.36400000  0.55720000  0.56660000  1.0 0.1007561356
H  H34  1  0.63600000  0.44280000  0.43340000  1.0 0.1007561356
H  H35  1  0.72840000  0.77130000  0.56280000  1.0 0.1007561356
H  H36  1  0.27160000  0.22870000  0.43720000  1.0 0.1007561356
H  H37  1  0.45500000  0.24490000  0.07230000  1.0 0.1295978921
H  H38  1  0.54500000  0.75510000  0.92770000  1.0 0.1295978921
H  H39  1  0.46790000  0.22160000  0.95280000  1.0 0.1007561356
H  H40  1  0.53210000  0.77840000  0.04720000  1.0 0.1007561356
C  C1  1  0.82300000  0.50560000  0.26560000  1.0 0.0026316643
C  C2  1  0.17700000  0.49440000  0.73440000  1.0 0.0026316643
C  C3  1  0.69900000  0.50460000  0.26250000  1.0 0.5584435492
C  C4  1  0.30100000  0.49540000  0.73750000  1.0 0.5584435492
C  C5  1  0.32700000  0.41130000  0.01250000  1.0 -0.1601518227
C  C6  1  0.67300000  0.58870000  0.98750000  1.0 -0.1601518227
C  C7  1  0.38210000  0.36180000  0.06300000  1.0 0.0180432639
C  C8  1  0.61790000  0.63820000  0.93700000  1.0 0.0180432639
C  C9  1  0.38160000  0.39150000  0.13980000  1.0 0.5776249422
C  C10  1  0.61840000  0.60850000  0.86020000  1.0 0.5776249422
C  C11  1  0.11780000  0.20980000  0.26470000  1.0 0.5584435492
C  C12  1  0.88220000  0.79020000  0.73530000  1.0 0.5584435492
C  C13  1  0.48320000  0.61120000  0.34670000  1.0 0.5584435492
C  C14  1  0.51680000  0.38880000  0.65330000  1.0 0.5584435492
C  C15  1  0.33320000  0.39060000  0.93950000  1.0 0.0608220129
C  C16  1  0.66680000  0.60940000  0.06050000  1.0 0.0608220129
C  C17  1  0.92400000  0.60180000  0.23960000  1.0 -0.1748185949
C  C18  1  0.07600000  0.39820000  0.76040000  1.0 -0.1748185949
C  C19  1  0.99220000  0.08930000  0.25210000  1.0 0.0286891005
C  C20  1  0.00780000  0.91070000  0.74790000  1.0 0.0286891005
C  C21  1  0.40470000  0.79690000  0.22450000  1.0 0.5584435492
C  C22  1  0.59530000  0.20310000  0.77550000  1.0 0.5584435492
C  C23  1  0.84850000  0.41560000  0.29410000  1.0 -0.1601518227
C  C24  1  0.15150000  0.58440000  0.70590000  1.0 -0.1601518227
C  C25  1  0.40840000  0.91610000  0.24260000  1.0 -0.0064047823
C  C26  1  0.59160000  0.08390000  0.75740000  1.0 -0.0064047823
C  C27  1  0.33320000  0.92680000  0.29060000  1.0 -0.1601518227
C  C28  1  0.66680000  0.07320000  0.70940000  1.0 -0.1601518227
C  C29  1  0.48770000  0.02120000  0.21670000  1.0 -0.1601518227
C  C30  1  0.51230000  0.97880000  0.78330000  1.0 -0.1601518227
C  C31  1  0.49130000  0.13490000  0.23450000  1.0 0.0793830706
C  C32  1  0.50870000  0.86510000  0.76550000  1.0 0.0793830706
C  C33  1  0.33870000  0.03760000  0.30770000  1.0 0.0496066009
C  C34  1  0.66130000  0.96240000  0.69230000  1.0 0.0496066009
C  C35  1  0.03830000  0.59910000  0.23830000  1.0 0.0857183142
C  C36  1  0.96170000  0.40090000  0.76170000  1.0 0.0857183142
C  C37  1  0.96090000  0.41490000  0.29040000  1.0 0.0496066009
C  C38  1  0.03910000  0.58510000  0.70960000  1.0 0.0496066009
C  C39  1  0.97020000  0.98990000  0.29210000  1.0 -0.1796375708
C  C40  1  0.02980000  0.01010000  0.70790000  1.0 -0.1796375708
C  C41  1  0.89330000  0.07450000  0.19950000  1.0 -0.1601518227
C  C42  1  0.10670000  0.92550000  0.80050000  1.0 -0.1601518227
C  C43  1  0.85610000  0.88380000  0.27690000  1.0 0.0793830706
C  C44  1  0.14390000  0.11620000  0.72310000  1.0 0.0793830706
C  C45  1  0.78250000  0.96210000  0.18720000  1.0 0.0496066009
C  C46  1  0.21750000  0.03790000  0.81280000  1.0 0.0496066009
C  C47  1  0.50340000  0.63450000  0.42690000  1.0 0.0286891005
C  C48  1  0.49660000  0.36550000  0.57310000  1.0 0.0286891005
C  C49  1  0.62560000  0.71280000  0.46560000  1.0 -0.1796375708
C  C50  1  0.37440000  0.28720000  0.53440000  1.0 -0.1796375708
C  C51  1  0.40230000  0.57670000  0.46550000  1.0 -0.1796375708
C  C52  1  0.59770000  0.42330000  0.53450000  1.0 -0.1796375708
C  C53  1  0.43120000  0.59780000  0.53980000  1.0 0.0857183142
C  C54  1  0.56880000  0.40220000  0.46020000  1.0 0.0857183142
C  C55  1  0.64450000  0.72450000  0.53800000  1.0 0.0496066009
C  C56  1  0.35550000  0.27550000  0.46200000  1.0 0.0496066009
C  C57  1  0.42690000  0.28680000  0.03960000  1.0 -0.1601518227
C  C58  1  0.57310000  0.71320000  0.96040000  1.0 -0.1601518227
C  C59  1  0.43190000  0.27110000  0.96750000  1.0 0.069894814
C  C60  1  0.56810000  0.72890000  0.03250000  1.0 0.069894814
C  C61  1  0.12600000  0.60600000  0.00700000  1.0 -0.0918980138
C  C62  1  0.87400000  0.39400000  0.99300000  1.0 -0.0918980138
C  C63  1  0.18600000  0.60600000  0.07870000  1.0 0.1295978921
C  C64  1  0.81400000  0.39400000  0.92130000  1.0 0.1295978921
C  C65  1  0.02100000  0.41200000  0.09420000  1.0 0.069894814
C  C66  1  0.97900000  0.58800000  0.90580000  1.0 0.069894814
C  C67  1  0.97500000  0.46000000  0.02200000  1.0 0.0286891005
C  C68  1  0.02500000  0.54000000  0.97800000  1.0 0.0286891005
N  N1  1  0.41770000  0.14590000  0.28090000  1.0 -0.2475454518
N  N2  1  0.58230000  0.85410000  0.71910000  1.0 -0.2475454518
N  N3  1  0.05960000  0.50860000  0.26210000  1.0 -0.2581130759
N  N4  1  0.94040000  0.49140000  0.73790000  1.0 -0.2581130759
N  N5  1  0.76260000  0.86550000  0.22690000  1.0 -0.2376168118
N  N6  1  0.23740000  0.13450000  0.77310000  1.0 -0.2376168118
N  N7  1  0.54700000  0.67110000  0.57480000  1.0 -0.2475454518
N  N8  1  0.45300000  0.32890000  0.42520000  1.0 -0.2475454518
N  N9  1  0.38840000  0.32240000  0.91840000  1.0 -0.2581130759
N  N10  1  0.61160000  0.67760000  0.08160000  1.0 -0.2581130759
O  O1  1  0.38300000  0.31360000  0.18000000  1.0 -0.5322004454
O  O2  1  0.61700000  0.68640000  0.82000000  1.0 -0.5322004454
O  O3  1  0.38670000  0.51090000  0.31970000  1.0 -0.5979931699
O  O4  1  0.61330000  0.48910000  0.68030000  1.0 -0.5979931699
O  O5  1  0.62570000  0.43690000  0.30620000  1.0 -0.5910538183
O  O6  1  0.37430000  0.56310000  0.69380000  1.0 -0.5910538183
O  O7  1  0.38140000  0.49170000  0.15780000  1.0 -0.5979931699
O  O8  1  0.61860000  0.50830000  0.84220000  1.0 -0.5979931699
O  O9  1  0.47450000  0.79470000  0.18190000  1.0 -0.5544666098
O  O10  1  0.52550000  0.20530000  0.81810000  1.0 -0.5544666098
O  O11  1  0.67570000  0.56410000  0.21890000  1.0 -0.5440438138
O  O12  1  0.32430000  0.43590000  0.78110000  1.0 -0.5440438138
O  O13  1  0.20270000  0.21210000  0.30660000  1.0 -0.5322004454
O  O14  1  0.79730000  0.78790000  0.69340000  1.0 -0.5322004454
O  O15  1  0.56010000  0.68610000  0.31590000  1.0 -0.4941407637
O  O16  1  0.43990000  0.31390000  0.68410000  1.0 -0.4941407637
O  O17  1  0.12190000  0.29330000  0.22610000  1.0 -0.571747397
O  O18  1  0.87810000  0.70670000  0.77390000  1.0 -0.571747397
O  O19  1  0.32650000  0.70550000  0.25250000  1.0 -0.5623509036
O  O20  1  0.67350000  0.29450000  0.74750000  1.0 -0.5623509036
O  O21  1  0.13400000  0.51100000  0.10750000  1.0 -0.2296369941
O  O22  1  0.86600000  0.48900000  0.89250000  1.0 -0.2296369941
