# DDEC6 charges by PACMAN v1.1 (https://github.com/mtap-research/PACMAN-charge/)
data_2013[Zn][fsc]3[ASR]2
_chemical_formula_sum              "Zn3 H26 C28 S2 N18 O12"
_cell_length_a       8.91
_cell_length_b       12.007
_cell_length_c       12.526
_cell_angle_alpha    77.708
_cell_angle_beta     76.629
_cell_angle_gamma    76.378

_symmetry_space_group_name_H-M    "P 1"
_symmetry_Int_Tables_number       1

loop_
  _symmetry_equiv_pos_as_xyz
  'x, y, z'

loop_
  _atom_site_type_symbol
  _atom_site_label
  _atom_site_symmetry_multiplicity
  _atom_site_fract_x
  _atom_site_fract_y
  _atom_site_fract_z
  _atom_site_occupancy
  _atom_site_charge
Zn  Zn1       1.0  0.71362  0.25325  0.09607  1.0000 0.7907704007
Zn  Zn2       1.0  0.28638  0.74675  0.90393  1.0000 0.7907704007
Zn  Zn3       1.0  0.00000  0.00000  0.00000  1.0000 0.9218197655
H   H1        1.0  0.97960  0.59990  0.73590  1.0000 0.1293038767
H   H2        1.0  0.02040  0.40010  0.26410  1.0000 0.1293038767
H   H3        1.0  0.10530  0.48400  0.74510  1.0000 0.1221642001
H   H4        1.0  0.89470  0.51600  0.25490  1.0000 0.1221642001
H   H5        1.0  0.97680  0.39530  0.94490  1.0000 0.1366901439
H   H6        1.0  0.02320  0.60470  0.05510  1.0000 0.1366901439
H   H7        1.0  0.57280  0.38880  0.88220  1.0000 0.1221642001
H   H8        1.0  0.42720  0.61120  0.11780  1.0000 0.1221642001
H   H9        1.0  0.23370  0.35070  0.67830  1.0000 0.1221642001
H   H10       1.0  0.76630  0.64930  0.32170  1.0000 0.1221642001
H   H11       1.0  0.27160  0.27360  0.58520  1.0000 0.1221642001
H   H12       1.0  0.72840  0.72640  0.41480  1.0000 0.1221642001
H   H13       1.0  0.19890  0.17650  0.84060  1.0000 0.1366901439
H   H14       1.0  0.80110  0.82350  0.15940  1.0000 0.1366901439
H   H15       1.0  0.84280  0.09260  0.77550  1.0000 0.1293038767
H   H16       1.0  0.15720  0.90740  0.22450  1.0000 0.1293038767
H   H17       1.0  0.89010  0.72910  0.63480  1.0000 0.1366901439
H   H18       1.0  0.10990  0.27090  0.36520  1.0000 0.1366901439
H   H19       1.0  0.82350  0.77540  0.52470  1.0000 0.1221642001
H   H20       1.0  0.17650  0.22460  0.47530  1.0000 0.1221642001
H   H21       1.0  0.65560  0.74580  0.79910  1.0000 0.1366901439
H   H22       1.0  0.34440  0.25420  0.20090  1.0000 0.1366901439
H   H23       1.0  0.34710  0.66150  0.67340  1.0000 0.1293038767
H   H24       1.0  0.65290  0.33850  0.32660  1.0000 0.1293038767
H   H25       1.0  0.64960  0.93480  0.99250  1.0000 0.1482007867
H   H26       1.0  0.35040  0.06520  0.00750  1.0000 0.1482007867
C   C1        1.0  0.00170  0.50990  0.60920  1.0000 0.0126090864
C   C2        1.0  0.99830  0.49010  0.39080  1.0000 0.0126090864
C   C3        1.0  0.08700  0.41030  0.56540  1.0000 0.0219933716
C   C4        1.0  0.91300  0.58970  0.43460  1.0000 0.0219933716
C   C5        1.0  0.91690  0.60050  0.54310  1.0000 0.0219933716
C   C6        1.0  0.08310  0.39950  0.45690  1.0000 0.0219933716
C   C7        1.0  0.00180  0.51870  0.72810  1.0000 -0.1932237703
C   C8        1.0  0.99820  0.48130  0.27190  1.0000 -0.1932237703
C   C9        1.0  0.89170  0.40540  0.91020  1.0000 0.0827984516
C   C10       1.0  0.10830  0.59460  0.08980  1.0000 0.0827984516
C   C11       1.0  0.67310  0.40330  0.87450  1.0000 0.1482007867
C   C12       1.0  0.32690  0.59670  0.12550  1.0000 0.1482007867
C   C13       1.0  0.18700  0.31550  0.63450  1.0000 -0.1982843388
C   C14       1.0  0.81300  0.68450  0.36550  1.0000 -0.1982843388
C   C15       1.0  0.11930  0.17220  0.80580  1.0000 0.087200452
C   C16       1.0  0.88070  0.82780  0.19420  1.0000 0.087200452
C   C17       1.0  0.92770  0.12760  0.76940  1.0000 0.1692274552
C   C18       1.0  0.07230  0.87240  0.23060  1.0000 0.1692274552
C   C19       1.0  0.83020  0.71170  0.58690  1.0000 -0.1805001344
C   C20       1.0  0.16980  0.28830  0.41310  1.0000 -0.1805001344
C   C21       1.0  0.60580  0.72420  0.75130  1.0000 0.1221642001
C   C22       1.0  0.39420  0.27580  0.24870  1.0000 0.1221642001
C   C23       1.0  0.44050  0.67820  0.68120  1.0000 0.1482007867
C   C24       1.0  0.55950  0.32180  0.31880  1.0000 0.1482007867
C   C25       1.0  0.61470  0.10260  0.02820  1.0000 0.6045754146
C   C26       1.0  0.38530  0.89740  0.97180  1.0000 0.6045754146
C   C27       1.0  0.57190  0.00040  0.00350  1.0000 -0.1805001344
C   C28       1.0  0.42810  0.99960  0.99650  1.0000 -0.1805001344
S   S1        1.0  0.05323  0.20020  0.14001  1.0000 1.400001068
S   S2        1.0  0.94677  0.79980  0.85999  1.0000 1.400001068
N   N1        1.0  0.75800  0.36720  0.95640  1.0000 -0.3228546787
N   N2        1.0  0.24200  0.63280  0.04360  1.0000 -0.3228546787
N   N3        1.0  0.88390  0.45970  0.80770  1.0000 0.1777351764
N   N4        1.0  0.11610  0.54030  0.19230  1.0000 0.1777351764
N   N5        1.0  0.74360  0.46020  0.78380  1.0000 -0.2422992844
N   N6        1.0  0.25640  0.53980  0.21620  1.0000 -0.2422992844
N   N7        1.0  0.01590  0.10370  0.84700  1.0000 -0.3079807121
N   N8        1.0  0.98410  0.89630  0.15300  1.0000 -0.3079807121
N   N9        1.0  0.09440  0.23340  0.70920  1.0000 0.1692274552
N   N10       1.0  0.90560  0.76660  0.29080  1.0000 0.1692274552
N   N11       1.0  0.97160  0.20570  0.68270  1.0000 -0.2592892159
N   N12       1.0  0.02840  0.79430  0.31730  1.0000 -0.2592892159
N   N13       1.0  0.45820  0.70930  0.77470  1.0000 -0.3339896012
N   N14       1.0  0.54180  0.29070  0.22530  1.0000 -0.3339896012
N   N15       1.0  0.67140  0.70380  0.64950  1.0000 0.1777351764
N   N16       1.0  0.32860  0.29620  0.35050  1.0000 0.1777351764
N   N17       1.0  0.56630  0.67380  0.60280  1.0000 -0.2794673253
N   N18       1.0  0.43370  0.32620  0.39720  1.0000 -0.2794673253
O   O1        1.0  0.88170  0.23930  0.17970  1.0000 -0.6715493906
O   O2        1.0  0.11830  0.76070  0.82030  1.0000 -0.6715493906
O   O3        1.0  0.07320  0.13140  0.05260  1.0000 -0.6973796893
O   O4        1.0  0.92680  0.86860  0.94740  1.0000 -0.6973796893
O   O5        1.0  0.12510  0.30110  0.09550  1.0000 -0.6715493906
O   O6        1.0  0.87490  0.69890  0.90450  1.0000 -0.6715493906
O   O7        1.0  0.12170  0.13140  0.23370  1.0000 -0.6602085639
O   O8        1.0  0.87830  0.86860  0.76630  1.0000 -0.6602085639
O   O9        1.0  0.75140  0.09140  0.05260  1.0000 -0.5739434469
O   O10       1.0  0.24860  0.90860  0.94740  1.0000 -0.5739434469
O   O11       1.0  0.52140  0.19720  0.02870  1.0000 -0.5160168517
O   O12       1.0  0.47860  0.80280  0.97130  1.0000 -0.5160168517
