# DDEC6 charges by PACMAN v1.1 (https://github.com/mtap-research/PACMAN-charge/)
data_2009[Cd][nuc]3[ASR]1
_chemical_formula_sum              "Cd4 H144 C192 N48"
_cell_length_a       15.869
_cell_length_b       15.869
_cell_length_c       21.649
_cell_angle_alpha    90
_cell_angle_beta     90
_cell_angle_gamma    90

_symmetry_space_group_name_H-M    "P 1"
_symmetry_Int_Tables_number       1

loop_
  _symmetry_equiv_pos_as_xyz
  'x, y, z'

loop_
  _atom_site_type_symbol
  _atom_site_label
  _atom_site_symmetry_multiplicity
  _atom_site_fract_x
  _atom_site_fract_y
  _atom_site_fract_z
  _atom_site_occupancy
  _atom_site_charge
Cd  Cd1       1.0  0.55842  0.55842  0.00000  1.0000 0.6430291247
Cd  Cd2       1.0  0.44158  0.44158  0.50000  1.0000 0.6430291247
Cd  Cd3       1.0  0.94158  0.05842  0.75000  1.0000 0.6430291247
Cd  Cd4       1.0  0.05842  0.94158  0.25000  1.0000 0.6430291247
H   H1        1.0  0.65870  0.43970  0.09160  1.0000 0.0982646085
H   H2        1.0  0.34130  0.56030  0.59160  1.0000 0.0982646085
H   H3        1.0  0.06030  0.15870  0.84160  1.0000 0.0982646085
H   H4        1.0  0.93970  0.84130  0.34160  1.0000 0.0982646085
H   H5        1.0  0.84130  0.93970  0.65840  1.0000 0.0982646085
H   H6        1.0  0.15870  0.06030  0.15840  1.0000 0.0982646085
H   H7        1.0  0.43970  0.65870  0.90840  1.0000 0.0982646085
H   H8        1.0  0.56030  0.34130  0.40840  1.0000 0.0982646085
H   H9        1.0  0.76580  0.34580  0.10650  1.0000 0.1282972574
H   H10       1.0  0.23420  0.65420  0.60650  1.0000 0.1282972574
H   H11       1.0  0.15420  0.26580  0.85650  1.0000 0.1282972574
H   H12       1.0  0.84580  0.73420  0.35650  1.0000 0.1282972574
H   H13       1.0  0.73420  0.84580  0.64350  1.0000 0.1282972574
H   H14       1.0  0.26580  0.15420  0.14350  1.0000 0.1282972574
H   H15       1.0  0.34580  0.76580  0.89350  1.0000 0.1282972574
H   H16       1.0  0.65420  0.23420  0.39350  1.0000 0.1282972574
H   H17       1.0  0.84890  0.40060  0.93690  1.0000 0.1282972574
H   H18       1.0  0.15110  0.59940  0.43690  1.0000 0.1282972574
H   H19       1.0  0.09940  0.34890  0.68690  1.0000 0.1282972574
H   H20       1.0  0.90060  0.65110  0.18690  1.0000 0.1282972574
H   H21       1.0  0.65110  0.90060  0.81310  1.0000 0.1282972574
H   H22       1.0  0.34890  0.09940  0.31310  1.0000 0.1282972574
H   H23       1.0  0.40060  0.84890  0.06310  1.0000 0.1282972574
H   H24       1.0  0.59940  0.15110  0.56310  1.0000 0.1282972574
H   H25       1.0  0.73850  0.49300  0.92660  1.0000 0.0926548105
H   H26       1.0  0.26150  0.50700  0.42660  1.0000 0.0926548105
H   H27       1.0  0.00700  0.23850  0.67660  1.0000 0.0926548105
H   H28       1.0  0.99300  0.76150  0.17660  1.0000 0.0926548105
H   H29       1.0  0.76150  0.99300  0.82340  1.0000 0.0926548105
H   H30       1.0  0.23850  0.00700  0.32340  1.0000 0.0926548105
H   H31       1.0  0.49300  0.73850  0.07340  1.0000 0.0926548105
H   H32       1.0  0.50700  0.26150  0.57340  1.0000 0.0926548105
H   H33       1.0  0.96520  0.33740  0.96270  1.0000 0.1109293118
H   H34       1.0  0.03480  0.66260  0.46270  1.0000 0.1109293118
H   H35       1.0  0.16260  0.46520  0.71270  1.0000 0.1109293118
H   H36       1.0  0.83740  0.53480  0.21270  1.0000 0.1109293118
H   H37       1.0  0.53480  0.83740  0.78730  1.0000 0.1109293118
H   H38       1.0  0.46520  0.16260  0.28730  1.0000 0.1109293118
H   H39       1.0  0.33740  0.96520  0.03730  1.0000 0.1109293118
H   H40       1.0  0.66260  0.03480  0.53730  1.0000 0.1109293118
H   H41       1.0  0.06510  0.23310  0.97080  1.0000 0.1109293118
H   H42       1.0  0.93490  0.76690  0.47080  1.0000 0.1109293118
H   H43       1.0  0.26690  0.56510  0.72080  1.0000 0.1109293118
H   H44       1.0  0.73310  0.43490  0.22080  1.0000 0.1109293118
H   H45       1.0  0.43490  0.73310  0.77920  1.0000 0.1109293118
H   H46       1.0  0.56510  0.26690  0.27920  1.0000 0.1109293118
H   H47       1.0  0.23310  0.06510  0.02920  1.0000 0.1109293118
H   H48       1.0  0.76690  0.93490  0.52920  1.0000 0.1109293118
H   H49       1.0  0.04850  0.12500  0.04270  1.0000 0.1109293118
H   H50       1.0  0.95150  0.87500  0.54270  1.0000 0.1109293118
H   H51       1.0  0.37500  0.54850  0.79270  1.0000 0.1109293118
H   H52       1.0  0.62500  0.45150  0.29270  1.0000 0.1109293118
H   H53       1.0  0.45150  0.62500  0.70730  1.0000 0.1109293118
H   H54       1.0  0.54850  0.37500  0.20730  1.0000 0.1109293118
H   H55       1.0  0.12500  0.04850  0.95730  1.0000 0.1109293118
H   H56       1.0  0.87500  0.95150  0.45730  1.0000 0.1109293118
H   H57       1.0  0.82720  0.22430  0.09490  1.0000 0.1109293118
H   H58       1.0  0.17280  0.77570  0.59490  1.0000 0.1109293118
H   H59       1.0  0.27570  0.32720  0.84490  1.0000 0.1109293118
H   H60       1.0  0.72430  0.67280  0.34490  1.0000 0.1109293118
H   H61       1.0  0.67280  0.72430  0.65510  1.0000 0.1109293118
H   H62       1.0  0.32720  0.27570  0.15510  1.0000 0.1109293118
H   H63       1.0  0.22430  0.82720  0.90510  1.0000 0.1109293118
H   H64       1.0  0.77570  0.17280  0.40510  1.0000 0.1109293118
H   H65       1.0  0.79830  0.00840  0.28960  1.0000 0.1109293118
H   H66       1.0  0.20170  0.99160  0.78960  1.0000 0.1109293118
H   H67       1.0  0.49160  0.29830  0.03960  1.0000 0.1109293118
H   H68       1.0  0.50840  0.70170  0.53960  1.0000 0.1109293118
H   H69       1.0  0.70170  0.50840  0.46040  1.0000 0.1109293118
H   H70       1.0  0.29830  0.49160  0.96040  1.0000 0.1109293118
H   H71       1.0  0.00840  0.79830  0.71040  1.0000 0.1109293118
H   H72       1.0  0.99160  0.20170  0.21040  1.0000 0.1109293118
H   H73       1.0  0.70070  0.91390  0.33350  1.0000 0.1109293118
H   H74       1.0  0.29930  0.08610  0.83350  1.0000 0.1109293118
H   H75       1.0  0.58610  0.20070  0.08350  1.0000 0.1109293118
H   H76       1.0  0.41390  0.79930  0.58350  1.0000 0.1109293118
H   H77       1.0  0.79930  0.41390  0.41650  1.0000 0.1109293118
H   H78       1.0  0.20070  0.58610  0.91650  1.0000 0.1109293118
H   H79       1.0  0.91390  0.70070  0.66650  1.0000 0.1109293118
H   H80       1.0  0.08610  0.29930  0.16650  1.0000 0.1109293118
H   H81       1.0  0.65030  0.80330  0.27910  1.0000 0.0982646085
H   H82       1.0  0.34970  0.19670  0.77910  1.0000 0.0982646085
H   H83       1.0  0.69670  0.15030  0.02910  1.0000 0.0982646085
H   H84       1.0  0.30330  0.84970  0.52910  1.0000 0.0982646085
H   H85       1.0  0.84970  0.30330  0.47090  1.0000 0.0982646085
H   H86       1.0  0.15030  0.69670  0.97090  1.0000 0.0982646085
H   H87       1.0  0.80330  0.65030  0.72090  1.0000 0.0982646085
H   H88       1.0  0.19670  0.34970  0.22090  1.0000 0.0982646085
H   H89       1.0  0.80380  0.86080  0.13850  1.0000 0.1109293118
H   H90       1.0  0.19620  0.13920  0.63850  1.0000 0.1109293118
H   H91       1.0  0.63920  0.30380  0.88850  1.0000 0.1109293118
H   H92       1.0  0.36080  0.69620  0.38850  1.0000 0.1109293118
H   H93       1.0  0.69620  0.36080  0.61150  1.0000 0.1109293118
H   H94       1.0  0.30380  0.63920  0.11150  1.0000 0.1109293118
H   H95       1.0  0.86080  0.80380  0.86150  1.0000 0.1109293118
H   H96       1.0  0.13920  0.19620  0.36150  1.0000 0.1109293118
H   H97       1.0  0.58800  0.71430  0.21630  1.0000 0.123633967
H   H98       1.0  0.41200  0.28570  0.71630  1.0000 0.123633967
H   H99       1.0  0.78570  0.08800  0.96630  1.0000 0.123633967
H   H100      1.0  0.21430  0.91200  0.46630  1.0000 0.123633967
H   H101      1.0  0.91200  0.21430  0.53370  1.0000 0.123633967
H   H102      1.0  0.08800  0.78570  0.03370  1.0000 0.123633967
H   H103      1.0  0.71430  0.58800  0.78370  1.0000 0.123633967
H   H104      1.0  0.28570  0.41200  0.28370  1.0000 0.123633967
H   H105      1.0  0.53930  0.61020  0.15010  1.0000 0.0982646085
H   H106      1.0  0.46070  0.38980  0.65010  1.0000 0.0982646085
H   H107      1.0  0.88980  0.03930  0.90010  1.0000 0.0982646085
H   H108      1.0  0.11020  0.96070  0.40010  1.0000 0.0982646085
H   H109      1.0  0.96070  0.11020  0.59990  1.0000 0.0982646085
H   H110      1.0  0.03930  0.88980  0.09990  1.0000 0.0982646085
H   H111      1.0  0.61020  0.53930  0.84990  1.0000 0.0982646085
H   H112      1.0  0.38980  0.46070  0.34990  1.0000 0.0982646085
H   H113      1.0  0.73040  0.64040  0.04150  1.0000 0.0982646085
H   H114      1.0  0.26960  0.35960  0.54150  1.0000 0.0982646085
H   H115      1.0  0.85960  0.23040  0.79150  1.0000 0.0982646085
H   H116      1.0  0.14040  0.76960  0.29150  1.0000 0.0982646085
H   H117      1.0  0.76960  0.14040  0.70850  1.0000 0.0982646085
H   H118      1.0  0.23040  0.85960  0.20850  1.0000 0.0982646085
H   H119      1.0  0.64040  0.73040  0.95850  1.0000 0.0982646085
H   H120      1.0  0.35960  0.26960  0.45850  1.0000 0.0982646085
H   H121      1.0  0.78620  0.74050  0.10390  1.0000 0.1282972574
H   H122      1.0  0.21380  0.25950  0.60390  1.0000 0.1282972574
H   H123      1.0  0.75950  0.28620  0.85390  1.0000 0.1282972574
H   H124      1.0  0.24050  0.71380  0.35390  1.0000 0.1282972574
H   H125      1.0  0.71380  0.24050  0.64610  1.0000 0.1282972574
H   H126      1.0  0.28620  0.75950  0.14610  1.0000 0.1282972574
H   H127      1.0  0.74050  0.78620  0.89610  1.0000 0.1282972574
H   H128      1.0  0.25950  0.21380  0.39610  1.0000 0.1282972574
H   H129      1.0  0.76650  0.06600  0.07700  1.0000 0.233973156
H   H130      1.0  0.23350  0.93400  0.57700  1.0000 0.233973156
H   H131      1.0  0.43400  0.26650  0.82700  1.0000 0.233973156
H   H132      1.0  0.56600  0.73350  0.32700  1.0000 0.233973156
H   H133      1.0  0.73350  0.56600  0.67300  1.0000 0.233973156
H   H134      1.0  0.26650  0.43400  0.17300  1.0000 0.233973156
H   H135      1.0  0.06600  0.76650  0.92300  1.0000 0.233973156
H   H136      1.0  0.93400  0.23350  0.42300  1.0000 0.233973156
H   H137      1.0  0.73250  0.04630  0.13760  1.0000 0.2523688573
H   H138      1.0  0.26750  0.95370  0.63760  1.0000 0.2523688573
H   H139      1.0  0.45370  0.23250  0.88760  1.0000 0.2523688573
H   H140      1.0  0.54630  0.76750  0.38760  1.0000 0.2523688573
H   H141      1.0  0.76750  0.54630  0.61240  1.0000 0.2523688573
H   H142      1.0  0.23250  0.45370  0.11240  1.0000 0.2523688573
H   H143      1.0  0.04630  0.73250  0.86240  1.0000 0.2523688573
H   H144      1.0  0.95370  0.26750  0.36240  1.0000 0.2523688573
C   C1        1.0  0.69680  0.43110  0.05960  1.0000 0.067643661
C   C2        1.0  0.30320  0.56890  0.55960  1.0000 0.067643661
C   C3        1.0  0.06890  0.19680  0.80960  1.0000 0.067643661
C   C4        1.0  0.93110  0.80320  0.30960  1.0000 0.067643661
C   C5        1.0  0.80320  0.93110  0.69040  1.0000 0.067643661
C   C6        1.0  0.19680  0.06890  0.19040  1.0000 0.067643661
C   C7        1.0  0.43110  0.69680  0.94040  1.0000 0.067643661
C   C8        1.0  0.56890  0.30320  0.44040  1.0000 0.067643661
C   C9        1.0  0.76110  0.37390  0.06890  1.0000 -0.20114193
C   C10       1.0  0.23890  0.62610  0.56890  1.0000 -0.20114193
C   C11       1.0  0.12610  0.26110  0.81890  1.0000 -0.20114193
C   C12       1.0  0.87390  0.73890  0.31890  1.0000 -0.20114193
C   C13       1.0  0.73890  0.87390  0.68110  1.0000 -0.20114193
C   C14       1.0  0.26110  0.12610  0.18110  1.0000 -0.20114193
C   C15       1.0  0.37390  0.76110  0.93110  1.0000 -0.20114193
C   C16       1.0  0.62610  0.23890  0.43110  1.0000 -0.20114193
C   C17       1.0  0.81900  0.35830  0.02190  1.0000 0.1109293118
C   C18       1.0  0.18100  0.64170  0.52190  1.0000 0.1109293118
C   C19       1.0  0.14170  0.31900  0.77190  1.0000 0.1109293118
C   C20       1.0  0.85830  0.68100  0.27190  1.0000 0.1109293118
C   C21       1.0  0.68100  0.85830  0.72810  1.0000 0.1109293118
C   C22       1.0  0.31900  0.14170  0.22810  1.0000 0.1109293118
C   C23       1.0  0.35830  0.81900  0.97810  1.0000 0.1109293118
C   C24       1.0  0.64170  0.18100  0.47810  1.0000 0.1109293118
C   C25       1.0  0.81010  0.40620  0.96880  1.0000 -0.2084180069
C   C26       1.0  0.18990  0.59380  0.46880  1.0000 -0.2084180069
C   C27       1.0  0.09380  0.31010  0.71880  1.0000 -0.2084180069
C   C28       1.0  0.90620  0.68990  0.21880  1.0000 -0.2084180069
C   C29       1.0  0.68990  0.90620  0.78120  1.0000 -0.2084180069
C   C30       1.0  0.31010  0.09380  0.28120  1.0000 -0.2084180069
C   C31       1.0  0.40620  0.81010  0.03120  1.0000 -0.2084180069
C   C32       1.0  0.59380  0.18990  0.53120  1.0000 -0.2084180069
C   C33       1.0  0.74340  0.46250  0.96300  1.0000 0.0573140555
C   C34       1.0  0.25660  0.53750  0.46300  1.0000 0.0573140555
C   C35       1.0  0.03750  0.24340  0.71300  1.0000 0.0573140555
C   C36       1.0  0.96250  0.75660  0.21300  1.0000 0.0573140555
C   C37       1.0  0.75660  0.96250  0.78700  1.0000 0.0573140555
C   C38       1.0  0.24340  0.03750  0.28700  1.0000 0.0573140555
C   C39       1.0  0.46250  0.74340  0.03700  1.0000 0.0573140555
C   C40       1.0  0.53750  0.25660  0.53700  1.0000 0.0573140555
C   C41       1.0  0.88470  0.29250  0.02810  1.0000 0.067643661
C   C42       1.0  0.11530  0.70750  0.52810  1.0000 0.067643661
C   C43       1.0  0.20750  0.38470  0.77810  1.0000 0.067643661
C   C44       1.0  0.79250  0.61530  0.27810  1.0000 0.067643661
C   C45       1.0  0.61530  0.79250  0.72190  1.0000 0.067643661
C   C46       1.0  0.38470  0.20750  0.22190  1.0000 0.067643661
C   C47       1.0  0.29250  0.88470  0.97190  1.0000 0.067643661
C   C48       1.0  0.70750  0.11530  0.47190  1.0000 0.067643661
C   C49       1.0  0.95750  0.29390  0.99090  1.0000 -0.1601654773
C   C50       1.0  0.04250  0.70610  0.49090  1.0000 -0.1601654773
C   C51       1.0  0.20610  0.45750  0.74090  1.0000 -0.1601654773
C   C52       1.0  0.79390  0.54250  0.24090  1.0000 -0.1601654773
C   C53       1.0  0.54250  0.79390  0.75910  1.0000 -0.1601654773
C   C54       1.0  0.45750  0.20610  0.25910  1.0000 -0.1601654773
C   C55       1.0  0.29390  0.95750  0.00910  1.0000 -0.1601654773
C   C56       1.0  0.70610  0.04250  0.50910  1.0000 -0.1601654773
C   C57       1.0  0.01750  0.23160  0.99580  1.0000 -0.1152682144
C   C58       1.0  0.98250  0.76840  0.49580  1.0000 -0.1152682144
C   C59       1.0  0.26840  0.51750  0.74580  1.0000 -0.1152682144
C   C60       1.0  0.73160  0.48250  0.24580  1.0000 -0.114589623
C   C61       1.0  0.48250  0.73160  0.75420  1.0000 -0.1152682144
C   C62       1.0  0.51750  0.26840  0.25420  1.0000 -0.114589623
C   C63       1.0  0.23160  0.01750  0.00420  1.0000 -0.1152682144
C   C64       1.0  0.76840  0.98250  0.50420  1.0000 -0.1152682144
C   C65       1.0  0.00710  0.16600  0.03830  1.0000 -0.1601654773
C   C66       1.0  0.99290  0.83400  0.53830  1.0000 -0.1601654773
C   C67       1.0  0.33400  0.50710  0.78830  1.0000 -0.1601654773
C   C68       1.0  0.66600  0.49290  0.28830  1.0000 -0.1601654773
C   C69       1.0  0.49290  0.66600  0.71170  1.0000 -0.1601654773
C   C70       1.0  0.50710  0.33400  0.21170  1.0000 -0.1601654773
C   C71       1.0  0.16600  0.00710  0.96170  1.0000 -0.1601654773
C   C72       1.0  0.83400  0.99290  0.46170  1.0000 -0.1601654773
C   C73       1.0  0.93380  0.16270  0.07400  1.0000 0.0277528393
C   C74       1.0  0.06620  0.83730  0.57400  1.0000 0.0277528393
C   C75       1.0  0.33730  0.43380  0.82400  1.0000 0.0277528393
C   C76       1.0  0.66270  0.56620  0.32400  1.0000 0.0277528393
C   C77       1.0  0.56620  0.66270  0.67600  1.0000 0.0277528393
C   C78       1.0  0.43380  0.33730  0.17600  1.0000 0.0277528393
C   C79       1.0  0.16270  0.93380  0.92600  1.0000 0.0277528393
C   C80       1.0  0.83730  0.06620  0.42600  1.0000 0.0277528393
C   C81       1.0  0.87470  0.22590  0.06970  1.0000 -0.20114193
C   C82       1.0  0.12530  0.77410  0.56970  1.0000 -0.20114193
C   C83       1.0  0.27410  0.37470  0.81970  1.0000 -0.20114193
C   C84       1.0  0.72590  0.62530  0.31970  1.0000 -0.20114193
C   C85       1.0  0.62530  0.72590  0.68030  1.0000 -0.20114193
C   C86       1.0  0.37470  0.27410  0.18030  1.0000 -0.20114193
C   C87       1.0  0.22590  0.87470  0.93030  1.0000 -0.20114193
C   C88       1.0  0.77410  0.12530  0.43030  1.0000 -0.20114193
C   C89       1.0  0.92530  0.09350  0.11730  1.0000 0.1698165175
C   C90       1.0  0.07470  0.90650  0.61730  1.0000 0.1698165175
C   C91       1.0  0.40650  0.42530  0.86730  1.0000 0.1698165175
C   C92       1.0  0.59350  0.57470  0.36730  1.0000 0.1698165175
C   C93       1.0  0.57470  0.59350  0.63270  1.0000 0.1698165175
C   C94       1.0  0.42530  0.40650  0.13270  1.0000 0.1698165175
C   C95       1.0  0.09350  0.92530  0.88270  1.0000 0.1698165175
C   C96       1.0  0.90650  0.07470  0.38270  1.0000 0.1698165175
C   C97       1.0  0.87390  0.99700  0.17970  1.0000 0.1698165175
C   C98       1.0  0.12610  0.00300  0.67970  1.0000 0.1698165175
C   C99       1.0  0.50300  0.37390  0.92970  1.0000 0.1698165175
C   C100      1.0  0.49700  0.62610  0.42970  1.0000 0.1698165175
C   C101      1.0  0.62610  0.49700  0.57030  1.0000 0.1698165175
C   C102      1.0  0.37390  0.50300  0.07030  1.0000 0.1698165175
C   C103      1.0  0.99700  0.87390  0.82030  1.0000 0.1698165175
C   C104      1.0  0.00300  0.12610  0.32030  1.0000 0.1698165175
C   C105      1.0  0.81110  0.94190  0.21000  1.0000 0.0220853001
C   C106      1.0  0.18890  0.05810  0.71000  1.0000 0.0220853001
C   C107      1.0  0.55810  0.31110  0.96000  1.0000 0.0220853001
C   C108      1.0  0.44190  0.68890  0.46000  1.0000 0.0220853001
C   C109      1.0  0.68890  0.44190  0.54000  1.0000 0.0220853001
C   C110      1.0  0.31110  0.55810  0.04000  1.0000 0.0220853001
C   C111      1.0  0.94190  0.81110  0.79000  1.0000 0.0220853001
C   C112      1.0  0.05810  0.18890  0.29000  1.0000 0.0220853001
C   C113      1.0  0.78040  0.96090  0.26820  1.0000 -0.1665738158
C   C114      1.0  0.21960  0.03910  0.76820  1.0000 -0.1665738158
C   C115      1.0  0.53910  0.28040  0.01820  1.0000 -0.1665738158
C   C116      1.0  0.46090  0.71960  0.51820  1.0000 -0.1665738158
C   C117      1.0  0.71960  0.46090  0.48180  1.0000 -0.1665738158
C   C118      1.0  0.28040  0.53910  0.98180  1.0000 -0.1665738158
C   C119      1.0  0.96090  0.78040  0.73180  1.0000 -0.1665738158
C   C120      1.0  0.03910  0.21960  0.23180  1.0000 -0.1665738158
C   C121      1.0  0.72050  0.90450  0.29370  1.0000 -0.0988269558
C   C122      1.0  0.27950  0.09550  0.79370  1.0000 -0.0988269558
C   C123      1.0  0.59550  0.22050  0.04370  1.0000 -0.0988269558
C   C124      1.0  0.40450  0.77950  0.54370  1.0000 -0.0988269558
C   C125      1.0  0.77950  0.40450  0.45630  1.0000 -0.0988269558
C   C126      1.0  0.22050  0.59550  0.95630  1.0000 -0.0988269558
C   C127      1.0  0.90450  0.72050  0.70630  1.0000 -0.0988269558
C   C128      1.0  0.09550  0.27950  0.20630  1.0000 -0.0988269558
C   C129      1.0  0.69140  0.83750  0.26150  1.0000 -0.1665738158
C   C130      1.0  0.30860  0.16250  0.76150  1.0000 -0.1665738158
C   C131      1.0  0.66250  0.19140  0.01150  1.0000 -0.1665738158
C   C132      1.0  0.33750  0.80860  0.51150  1.0000 -0.1665738158
C   C133      1.0  0.80860  0.33750  0.48850  1.0000 -0.1665738158
C   C134      1.0  0.19140  0.66250  0.98850  1.0000 -0.1665738158
C   C135      1.0  0.83750  0.69140  0.73850  1.0000 -0.1665738158
C   C136      1.0  0.16250  0.30860  0.23850  1.0000 -0.1665738158
C   C137      1.0  0.72140  0.81840  0.20300  1.0000 0.067643661
C   C138      1.0  0.27860  0.18160  0.70300  1.0000 0.067643661
C   C139      1.0  0.68160  0.22140  0.95300  1.0000 0.067643661
C   C140      1.0  0.31840  0.77860  0.45300  1.0000 0.067643661
C   C141      1.0  0.77860  0.31840  0.54700  1.0000 0.067643661
C   C142      1.0  0.22140  0.68160  0.04700  1.0000 0.067643661
C   C143      1.0  0.81840  0.72140  0.79700  1.0000 0.067643661
C   C144      1.0  0.18160  0.27860  0.29700  1.0000 0.067643661
C   C145      1.0  0.78230  0.87210  0.17760  1.0000 -0.2084180069
C   C146      1.0  0.21770  0.12790  0.67760  1.0000 -0.2084180069
C   C147      1.0  0.62790  0.28230  0.92760  1.0000 -0.2084180069
C   C148      1.0  0.37210  0.71770  0.42760  1.0000 -0.2084180069
C   C149      1.0  0.71770  0.37210  0.57240  1.0000 -0.2084180069
C   C150      1.0  0.28230  0.62790  0.07240  1.0000 -0.2084180069
C   C151      1.0  0.87210  0.78230  0.82240  1.0000 -0.2084180069
C   C152      1.0  0.12790  0.21770  0.32240  1.0000 -0.2084180069
C   C153      1.0  0.69110  0.74590  0.16540  1.0000 0.1109293118
C   C154      1.0  0.30890  0.25410  0.66540  1.0000 0.1109293118
C   C155      1.0  0.75410  0.19110  0.91540  1.0000 0.1109293118
C   C156      1.0  0.24590  0.80890  0.41540  1.0000 0.1109293118
C   C157      1.0  0.80890  0.24590  0.58460  1.0000 0.1109293118
C   C158      1.0  0.19110  0.75410  0.08460  1.0000 0.1109293118
C   C159      1.0  0.74590  0.69110  0.83460  1.0000 0.1109293118
C   C160      1.0  0.25410  0.30890  0.33460  1.0000 0.1109293118
C   C161      1.0  0.61730  0.70220  0.18020  1.0000 -0.2239224453
C   C162      1.0  0.38270  0.29780  0.68020  1.0000 -0.2239224453
C   C163      1.0  0.79780  0.11730  0.93020  1.0000 -0.2239224453
C   C164      1.0  0.20220  0.88270  0.43020  1.0000 -0.2239224453
C   C165      1.0  0.88270  0.20220  0.56980  1.0000 -0.2239224453
C   C166      1.0  0.11730  0.79780  0.06980  1.0000 -0.2239224453
C   C167      1.0  0.70220  0.61730  0.81980  1.0000 -0.2239224453
C   C168      1.0  0.29780  0.38270  0.31980  1.0000 -0.2239224453
C   C169      1.0  0.58800  0.63940  0.13950  1.0000 0.067643661
C   C170      1.0  0.41200  0.36060  0.63950  1.0000 0.067643661
C   C171      1.0  0.86060  0.08800  0.88950  1.0000 0.067643661
C   C172      1.0  0.13940  0.91200  0.38950  1.0000 0.067643661
C   C173      1.0  0.91200  0.13940  0.61050  1.0000 0.067643661
C   C174      1.0  0.08800  0.86060  0.11050  1.0000 0.067643661
C   C175      1.0  0.63940  0.58800  0.86050  1.0000 0.067643661
C   C176      1.0  0.36060  0.41200  0.36050  1.0000 0.067643661
C   C177      1.0  0.70010  0.65690  0.07630  1.0000 0.0277528393
C   C178      1.0  0.29990  0.34310  0.57630  1.0000 0.0277528393
C   C179      1.0  0.84310  0.20010  0.82630  1.0000 0.0277528393
C   C180      1.0  0.15690  0.79990  0.32630  1.0000 0.0277528393
C   C181      1.0  0.79990  0.15690  0.67370  1.0000 0.0277528393
C   C182      1.0  0.20010  0.84310  0.17370  1.0000 0.0277528393
C   C183      1.0  0.65690  0.70010  0.92370  1.0000 0.0277528393
C   C184      1.0  0.34310  0.29990  0.42370  1.0000 0.0277528393
C   C185      1.0  0.73390  0.71770  0.11350  1.0000 -0.2084180069
C   C186      1.0  0.26610  0.28230  0.61350  1.0000 -0.2084180069
C   C187      1.0  0.78230  0.23390  0.86350  1.0000 -0.2084180069
C   C188      1.0  0.21770  0.76610  0.36350  1.0000 -0.2084180069
C   C189      1.0  0.76610  0.21770  0.63650  1.0000 -0.2084180069
C   C190      1.0  0.23390  0.78230  0.13650  1.0000 -0.2084180069
C   C191      1.0  0.71770  0.73390  0.88650  1.0000 -0.2084180069
C   C192      1.0  0.28230  0.26610  0.38650  1.0000 -0.2084180069
N   N1        1.0  0.68570  0.47500  0.00760  1.0000 -0.2436952803
N   N2        1.0  0.31430  0.52500  0.50760  1.0000 -0.2436952803
N   N3        1.0  0.02500  0.18570  0.75760  1.0000 -0.2436952803
N   N4        1.0  0.97500  0.81430  0.25760  1.0000 -0.2436952803
N   N5        1.0  0.81430  0.97500  0.74240  1.0000 -0.2436952803
N   N6        1.0  0.18570  0.02500  0.24240  1.0000 -0.2436952803
N   N7        1.0  0.47500  0.68570  0.99240  1.0000 -0.2436952803
N   N8        1.0  0.52500  0.31430  0.49240  1.0000 -0.2436952803
N   N9        1.0  0.98870  0.05510  0.14460  1.0000 -0.276262163
N   N10       1.0  0.01130  0.94490  0.64460  1.0000 -0.276262163
N   N11       1.0  0.44490  0.48870  0.89460  1.0000 -0.276262163
N   N12       1.0  0.55510  0.51130  0.39460  1.0000 -0.276262163
N   N13       1.0  0.51130  0.55510  0.60540  1.0000 -0.276262163
N   N14       1.0  0.48870  0.44490  0.10540  1.0000 -0.276262163
N   N15       1.0  0.05510  0.98870  0.85540  1.0000 -0.276262163
N   N16       1.0  0.94490  0.01130  0.35540  1.0000 -0.276262163
N   N17       1.0  0.95600  0.99480  0.18350  1.0000 -0.2239224453
N   N18       1.0  0.04400  0.00520  0.68350  1.0000 -0.2239224453
N   N19       1.0  0.50520  0.45600  0.93350  1.0000 -0.2239224453
N   N20       1.0  0.49480  0.54400  0.43350  1.0000 -0.2239224453
N   N21       1.0  0.54400  0.49480  0.56650  1.0000 -0.2239224453
N   N22       1.0  0.45600  0.50520  0.06650  1.0000 -0.2239224453
N   N23       1.0  0.99480  0.95600  0.81650  1.0000 -0.2239224453
N   N24       1.0  0.00520  0.04400  0.31650  1.0000 -0.2239224453
N   N25       1.0  0.85210  0.05790  0.13830  1.0000 0.0573140555
N   N26       1.0  0.14790  0.94210  0.63830  1.0000 0.0573140555
N   N27       1.0  0.44210  0.35210  0.88830  1.0000 0.0573140555
N   N28       1.0  0.55790  0.64790  0.38830  1.0000 0.0573140555
N   N29       1.0  0.64790  0.55790  0.61170  1.0000 0.0573140555
N   N30       1.0  0.35210  0.44210  0.11170  1.0000 0.0573140555
N   N31       1.0  0.05790  0.85210  0.86170  1.0000 0.0573140555
N   N32       1.0  0.94210  0.14790  0.36170  1.0000 0.0573140555
N   N33       1.0  0.76990  0.07740  0.11710  1.0000 -0.5121385295
N   N34       1.0  0.23010  0.92260  0.61710  1.0000 -0.5121385295
N   N35       1.0  0.42260  0.26990  0.86710  1.0000 -0.5121385295
N   N36       1.0  0.57740  0.73010  0.36710  1.0000 -0.5121385295
N   N37       1.0  0.73010  0.57740  0.63290  1.0000 -0.5121385295
N   N38       1.0  0.26990  0.42260  0.13290  1.0000 -0.5121385295
N   N39       1.0  0.07740  0.76990  0.88290  1.0000 -0.5121385295
N   N40       1.0  0.92260  0.23010  0.38290  1.0000 -0.5121385295
N   N41       1.0  0.62570  0.61970  0.08710  1.0000 -0.2280032809
N   N42       1.0  0.37430  0.38030  0.58710  1.0000 -0.2280032809
N   N43       1.0  0.88030  0.12570  0.83710  1.0000 -0.2280032809
N   N44       1.0  0.11970  0.87430  0.33710  1.0000 -0.2280032809
N   N45       1.0  0.87430  0.11970  0.66290  1.0000 -0.2280032809
N   N46       1.0  0.12570  0.88030  0.16290  1.0000 -0.2280032809
N   N47       1.0  0.61970  0.62570  0.91290  1.0000 -0.2280032809
N   N48       1.0  0.38030  0.37430  0.41290  1.0000 -0.2280032809
