# DDEC6 charges by PACMAN v1.1 (https://github.com/mtap-research/PACMAN-charge/)
data_2003[CuNd][stp]3[ASR]1
_chemical_formula_sum              "Nd4 Cu6 H60 C48 N12 O48"
_cell_length_a       13.4027
_cell_length_b       13.4027
_cell_length_c       14.669
_cell_angle_alpha    90
_cell_angle_beta     90
_cell_angle_gamma    120

_symmetry_space_group_name_H-M    "P 1"
_symmetry_Int_Tables_number       1

loop_
  _symmetry_equiv_pos_as_xyz
  'x, y, z'

loop_
  _atom_site_type_symbol
  _atom_site_label
  _atom_site_symmetry_multiplicity
  _atom_site_fract_x
  _atom_site_fract_y
  _atom_site_fract_z
  _atom_site_occupancy
  _atom_site_charge
Nd  Nd1       1.0  0.66667  0.33333  0.16889  1.0000 2.0682186875
Nd  Nd2       1.0  0.33333  0.66667  0.33111  1.0000 2.0682186875
Nd  Nd3       1.0  0.66667  0.33333  0.66889  1.0000 2.0682186875
Nd  Nd4       1.0  0.33333  0.66667  0.83111  1.0000 2.0682186875
Cu  Cu1       1.0  0.00000  0.50000  0.00000  1.0000 0.7473816766
Cu  Cu2       1.0  0.50000  0.50000  0.00000  1.0000 0.7473816766
Cu  Cu3       1.0  0.50000  0.00000  0.00000  1.0000 0.7473816766
Cu  Cu4       1.0  0.50000  0.00000  0.50000  1.0000 0.7473816766
Cu  Cu5       1.0  0.50000  0.50000  0.50000  1.0000 0.7473816766
Cu  Cu6       1.0  0.00000  0.50000  0.50000  1.0000 0.7473816766
H   H1        1.0  0.95960  0.25210  0.04810  1.0000 0.1395358387
H   H2        1.0  0.74790  0.70750  0.04810  1.0000 0.1395358387
H   H3        1.0  0.29250  0.04040  0.04810  1.0000 0.1395358387
H   H4        1.0  0.25210  0.95960  0.45190  1.0000 0.1395358387
H   H5        1.0  0.29250  0.25210  0.54810  1.0000 0.1395358387
H   H6        1.0  0.95960  0.70750  0.54810  1.0000 0.1395358387
H   H7        1.0  0.04040  0.74790  0.95190  1.0000 0.1395358387
H   H8        1.0  0.25210  0.29250  0.95190  1.0000 0.1395358387
H   H9        1.0  0.70750  0.95960  0.95190  1.0000 0.1395358387
H   H10       1.0  0.74790  0.04040  0.54810  1.0000 0.1395358387
H   H11       1.0  0.70750  0.74790  0.45190  1.0000 0.1395358387
H   H12       1.0  0.04040  0.29250  0.45190  1.0000 0.1395358387
H   H13       1.0  0.86050  0.18050  0.97830  1.0000 0.1299164488
H   H14       1.0  0.81950  0.68000  0.97830  1.0000 0.1299164488
H   H15       1.0  0.32000  0.13950  0.97830  1.0000 0.1299164488
H   H16       1.0  0.18050  0.86050  0.52170  1.0000 0.1299164488
H   H17       1.0  0.32000  0.18050  0.47830  1.0000 0.1299164488
H   H18       1.0  0.86050  0.68000  0.47830  1.0000 0.1299164488
H   H19       1.0  0.13950  0.81950  0.02170  1.0000 0.1299164488
H   H20       1.0  0.18050  0.32000  0.02170  1.0000 0.1299164488
H   H21       1.0  0.68000  0.86050  0.02170  1.0000 0.1299164488
H   H22       1.0  0.81950  0.13950  0.47830  1.0000 0.1299164488
H   H23       1.0  0.68000  0.81950  0.52170  1.0000 0.1299164488
H   H24       1.0  0.13950  0.32000  0.52170  1.0000 0.1299164488
H   H25       1.0  0.02480  0.35110  0.92270  1.0000 0.2573933694
H   H26       1.0  0.64890  0.67370  0.92270  1.0000 0.2573933694
H   H27       1.0  0.32630  0.97520  0.92270  1.0000 0.2573933694
H   H28       1.0  0.35110  0.02480  0.57730  1.0000 0.2573933694
H   H29       1.0  0.32630  0.35110  0.42270  1.0000 0.2573933694
H   H30       1.0  0.02480  0.67370  0.42270  1.0000 0.2573933694
H   H31       1.0  0.97520  0.64890  0.07730  1.0000 0.2573933694
H   H32       1.0  0.35110  0.32630  0.07730  1.0000 0.2573933694
H   H33       1.0  0.67370  0.02480  0.07730  1.0000 0.2573933694
H   H34       1.0  0.64890  0.97520  0.42270  1.0000 0.2573933694
H   H35       1.0  0.67370  0.64890  0.57730  1.0000 0.2573933694
H   H36       1.0  0.97520  0.32630  0.57730  1.0000 0.2573933694
H   H37       1.0  0.80920  0.26810  0.87320  1.0000 0.1561718676
H   H38       1.0  0.73190  0.54110  0.87320  1.0000 0.1561718676
H   H39       1.0  0.45890  0.19080  0.87320  1.0000 0.1561718676
H   H40       1.0  0.26810  0.80920  0.62680  1.0000 0.1561718676
H   H41       1.0  0.45890  0.26810  0.37320  1.0000 0.1561718676
H   H42       1.0  0.80920  0.54110  0.37320  1.0000 0.1561718676
H   H43       1.0  0.19080  0.73190  0.12680  1.0000 0.1561718676
H   H44       1.0  0.26810  0.45890  0.12680  1.0000 0.1561718676
H   H45       1.0  0.54110  0.80920  0.12680  1.0000 0.1561718676
H   H46       1.0  0.73190  0.19080  0.37320  1.0000 0.1561718676
H   H47       1.0  0.54110  0.73190  0.62680  1.0000 0.1561718676
H   H48       1.0  0.19080  0.45890  0.62680  1.0000 0.1561718676
H   H49       1.0  0.91740  0.31470  0.80980  1.0000 0.1519123595
H   H50       1.0  0.68530  0.60270  0.80980  1.0000 0.1519123595
H   H51       1.0  0.39730  0.08260  0.80980  1.0000 0.1519123595
H   H52       1.0  0.31470  0.91740  0.69020  1.0000 0.1519123595
H   H53       1.0  0.39730  0.31470  0.30980  1.0000 0.1519123595
H   H54       1.0  0.91740  0.60270  0.30980  1.0000 0.1519123595
H   H55       1.0  0.08260  0.68530  0.19020  1.0000 0.1519123595
H   H56       1.0  0.31470  0.39730  0.19020  1.0000 0.1519123595
H   H57       1.0  0.60270  0.91740  0.19020  1.0000 0.1519123595
H   H58       1.0  0.68530  0.08260  0.30980  1.0000 0.1519123595
H   H59       1.0  0.60270  0.68530  0.69020  1.0000 0.1519123595
H   H60       1.0  0.08260  0.39730  0.69020  1.0000 0.1519123595
C   C1        1.0  0.81820  0.27130  0.06780  1.0000 0.6114395056
C   C2        1.0  0.72870  0.54690  0.06780  1.0000 0.6114395056
C   C3        1.0  0.45310  0.18180  0.06780  1.0000 0.6114395056
C   C4        1.0  0.27130  0.81820  0.43220  1.0000 0.6114395056
C   C5        1.0  0.45310  0.27130  0.56780  1.0000 0.6114395056
C   C6        1.0  0.81820  0.54690  0.56780  1.0000 0.6114395056
C   C7        1.0  0.18180  0.72870  0.93220  1.0000 0.6114395056
C   C8        1.0  0.27130  0.45310  0.93220  1.0000 0.6114395056
C   C9        1.0  0.54690  0.81820  0.93220  1.0000 0.6114395056
C   C10       1.0  0.72870  0.18180  0.56780  1.0000 0.6114395056
C   C11       1.0  0.54690  0.72870  0.43220  1.0000 0.6114395056
C   C12       1.0  0.18180  0.45310  0.43220  1.0000 0.6114395056
C   C13       1.0  0.90180  0.25390  0.00960  1.0000 -0.2382551339
C   C14       1.0  0.74610  0.64790  0.00960  1.0000 -0.2382551339
C   C15       1.0  0.35210  0.09820  0.00960  1.0000 -0.2382551339
C   C16       1.0  0.25390  0.90180  0.49040  1.0000 -0.2382551339
C   C17       1.0  0.35210  0.25390  0.50960  1.0000 -0.2382551339
C   C18       1.0  0.90180  0.64790  0.50960  1.0000 -0.2382551339
C   C19       1.0  0.09820  0.74610  0.99040  1.0000 -0.2382551339
C   C20       1.0  0.25390  0.35210  0.99040  1.0000 -0.2382551339
C   C21       1.0  0.64790  0.90180  0.99040  1.0000 -0.2382551339
C   C22       1.0  0.74610  0.09820  0.50960  1.0000 -0.2382551339
C   C23       1.0  0.64790  0.74610  0.49040  1.0000 -0.2382551339
C   C24       1.0  0.09820  0.35210  0.49040  1.0000 -0.2382551339
C   C25       1.0  0.88580  0.33280  0.86240  1.0000 -0.2682191637
C   C26       1.0  0.66720  0.55300  0.86240  1.0000 -0.2682191637
C   C27       1.0  0.44700  0.11420  0.86240  1.0000 -0.2682191637
C   C28       1.0  0.33280  0.88580  0.63760  1.0000 -0.2682191637
C   C29       1.0  0.44700  0.33280  0.36240  1.0000 -0.2682191637
C   C30       1.0  0.88580  0.55300  0.36240  1.0000 -0.2682191637
C   C31       1.0  0.11420  0.66720  0.13760  1.0000 -0.2682191637
C   C32       1.0  0.33280  0.44700  0.13760  1.0000 -0.2682191637
C   C33       1.0  0.55300  0.88580  0.13760  1.0000 -0.2682191637
C   C34       1.0  0.66720  0.11420  0.36240  1.0000 -0.2682191637
C   C35       1.0  0.55300  0.66720  0.63760  1.0000 -0.2682191637
C   C36       1.0  0.11420  0.44700  0.63760  1.0000 -0.2682191637
C   C37       1.0  0.87740  0.43790  0.84280  1.0000 0.6483559403
C   C38       1.0  0.56210  0.43950  0.84280  1.0000 0.6483559403
C   C39       1.0  0.56050  0.12260  0.84280  1.0000 0.6483559403
C   C40       1.0  0.43790  0.87740  0.65720  1.0000 0.6483559403
C   C41       1.0  0.56050  0.43790  0.34280  1.0000 0.6483559403
C   C42       1.0  0.87740  0.43950  0.34280  1.0000 0.6483559403
C   C43       1.0  0.12260  0.56210  0.15720  1.0000 0.6483559403
C   C44       1.0  0.43790  0.56050  0.15720  1.0000 0.6483559403
C   C45       1.0  0.43950  0.87740  0.15720  1.0000 0.6483559403
C   C46       1.0  0.56210  0.12260  0.34280  1.0000 0.6483559403
C   C47       1.0  0.43950  0.56210  0.65720  1.0000 0.6483559403
C   C48       1.0  0.12260  0.56050  0.65720  1.0000 0.6483559403
N   N1        1.0  0.95890  0.34830  0.94199  1.0000 -0.2581948917
N   N2        1.0  0.65170  0.61060  0.94199  1.0000 -0.2581948917
N   N3        1.0  0.38940  0.04110  0.94199  1.0000 -0.2581948917
N   N4        1.0  0.34830  0.95890  0.55801  1.0000 -0.2581948917
N   N5        1.0  0.38940  0.34830  0.44199  1.0000 -0.2581948917
N   N6        1.0  0.95890  0.61060  0.44199  1.0000 -0.2581948917
N   N7        1.0  0.04110  0.65170  0.05801  1.0000 -0.2581948917
N   N8        1.0  0.34830  0.38940  0.05801  1.0000 -0.2581948917
N   N9        1.0  0.61060  0.95890  0.05801  1.0000 -0.2581948917
N   N10       1.0  0.65170  0.04110  0.44199  1.0000 -0.2581948917
N   N11       1.0  0.61060  0.65170  0.55801  1.0000 -0.2581948917
N   N12       1.0  0.04110  0.38940  0.55801  1.0000 -0.2581948917
O   O1        1.0  0.75766  0.19668  0.12408  1.0000 -0.5893136468
O   O2        1.0  0.80332  0.56098  0.12408  1.0000 -0.5893136468
O   O3        1.0  0.43902  0.24234  0.12408  1.0000 -0.5893136468
O   O4        1.0  0.19668  0.75766  0.37592  1.0000 -0.5893136468
O   O5        1.0  0.43902  0.19668  0.62408  1.0000 -0.5893136468
O   O6        1.0  0.75766  0.56098  0.62408  1.0000 -0.5893136468
O   O7        1.0  0.24234  0.80332  0.87592  1.0000 -0.5893136468
O   O8        1.0  0.19668  0.43902  0.87592  1.0000 -0.5893136468
O   O9        1.0  0.56098  0.75766  0.87592  1.0000 -0.5893136468
O   O10       1.0  0.80332  0.24234  0.62408  1.0000 -0.5893136468
O   O11       1.0  0.56098  0.80332  0.37592  1.0000 -0.5893136468
O   O12       1.0  0.24234  0.43902  0.37592  1.0000 -0.5893136468
O   O13       1.0  0.81520  0.36300  0.05691  1.0000 -0.6483268894
O   O14       1.0  0.63700  0.45220  0.05691  1.0000 -0.6483268894
O   O15       1.0  0.54780  0.18480  0.05691  1.0000 -0.6483268894
O   O16       1.0  0.36300  0.81520  0.44309  1.0000 -0.6483268894
O   O17       1.0  0.54780  0.36300  0.55691  1.0000 -0.6483268894
O   O18       1.0  0.81520  0.45220  0.55691  1.0000 -0.6483268894
O   O19       1.0  0.18480  0.63700  0.94309  1.0000 -0.6483268894
O   O20       1.0  0.36300  0.54780  0.94309  1.0000 -0.6483268894
O   O21       1.0  0.45220  0.81520  0.94309  1.0000 -0.6483268894
O   O22       1.0  0.63700  0.18480  0.55691  1.0000 -0.6483268894
O   O23       1.0  0.45220  0.63700  0.44309  1.0000 -0.6483268894
O   O24       1.0  0.18480  0.54780  0.44309  1.0000 -0.6483268894
O   O25       1.0  0.92590  0.52390  0.89448  1.0000 -0.5071857826
O   O26       1.0  0.47610  0.40200  0.89448  1.0000 -0.5071857826
O   O27       1.0  0.59800  0.07410  0.89448  1.0000 -0.5071857826
O   O28       1.0  0.52390  0.92590  0.60552  1.0000 -0.5071857826
O   O29       1.0  0.59800  0.52390  0.39448  1.0000 -0.5071857826
O   O30       1.0  0.92590  0.40200  0.39448  1.0000 -0.5071857826
O   O31       1.0  0.07410  0.47610  0.10552  1.0000 -0.5071857826
O   O32       1.0  0.52390  0.59800  0.10552  1.0000 -0.5071857826
O   O33       1.0  0.40200  0.92590  0.10552  1.0000 -0.5071857826
O   O34       1.0  0.47610  0.07410  0.39448  1.0000 -0.5071857826
O   O35       1.0  0.40200  0.47610  0.60552  1.0000 -0.5071857826
O   O36       1.0  0.07410  0.59800  0.60552  1.0000 -0.5071857826
O   O37       1.0  0.82170  0.43670  0.77439  1.0000 -0.6483268894
O   O38       1.0  0.56330  0.38500  0.77439  1.0000 -0.6483268894
O   O39       1.0  0.61500  0.17830  0.77439  1.0000 -0.6483268894
O   O40       1.0  0.43670  0.82170  0.72561  1.0000 -0.6483268894
O   O41       1.0  0.61500  0.43670  0.27439  1.0000 -0.6483268894
O   O42       1.0  0.82170  0.38500  0.27439  1.0000 -0.6483268894
O   O43       1.0  0.17830  0.56330  0.22561  1.0000 -0.6483268894
O   O44       1.0  0.43670  0.61500  0.22561  1.0000 -0.6483268894
O   O45       1.0  0.38500  0.82170  0.22561  1.0000 -0.6483268894
O   O46       1.0  0.56330  0.17830  0.27439  1.0000 -0.6483268894
O   O47       1.0  0.38500  0.56330  0.72561  1.0000 -0.6483268894
O   O48       1.0  0.17830  0.61500  0.72561  1.0000 -0.6483268894
