# DDEC6 charges by PACMAN v1.1 (https://github.com/mtap-research/PACMAN-charge/)
data_2012[Cu][tbo]3[ASR]2
_chemical_formula_sum              "Cu12 H24 C72 O48"
_cell_length_a       18.6229
_cell_length_b       18.6229
_cell_length_c       18.6229
_cell_angle_alpha    60
_cell_angle_beta     60
_cell_angle_gamma    60

_symmetry_space_group_name_H-M    "P 1"
_symmetry_Int_Tables_number       1

loop_
  _symmetry_equiv_pos_as_xyz
  'x, y, z'

loop_
  _atom_site_type_symbol
  _atom_site_label
  _atom_site_symmetry_multiplicity
  _atom_site_fract_x
  _atom_site_fract_y
  _atom_site_fract_z
  _atom_site_occupancy
  _atom_site_charge
Cu  Cu1       1.0  0.00000  0.57000  0.43000  1.0000 0.8528225521
Cu  Cu2       1.0  0.57000  0.43000  0.00000  1.0000 0.8528225521
Cu  Cu3       1.0  0.43000  0.00000  0.57000  1.0000 0.8528225521
Cu  Cu4       1.0  0.57000  0.00000  0.00000  1.0000 0.8528225521
Cu  Cu5       1.0  0.43000  0.57000  0.00000  1.0000 0.8528225521
Cu  Cu6       1.0  0.00000  0.43000  0.00000  1.0000 0.8528225521
Cu  Cu7       1.0  0.00000  1.00000  0.43000  1.0000 0.8528225521
Cu  Cu8       1.0  0.00000  0.57000  0.00000  1.0000 0.8528225521
Cu  Cu9       1.0  0.57000  1.00000  0.43000  1.0000 0.8528225521
Cu  Cu10      1.0  0.43000  0.00000  0.00000  1.0000 0.8528225521
Cu  Cu11      1.0  0.00000  0.00000  0.57000  1.0000 0.8528225521
Cu  Cu12      1.0  0.00000  0.43000  0.57000  1.0000 0.8528225521
H   H1        1.0  0.27040  0.48740  0.27040  1.0000 0.1379037995
H   H2        1.0  0.48740  0.27040  0.27040  1.0000 0.1379037995
H   H3        1.0  0.27040  0.27040  0.48740  1.0000 0.1379037995
H   H4        1.0  0.48740  0.27040  0.97180  1.0000 0.1379037995
H   H5        1.0  0.27040  0.48740  0.97180  1.0000 0.1379037995
H   H6        1.0  0.27040  0.27040  0.97180  1.0000 0.1379037995
H   H7        1.0  0.97180  0.27040  0.27040  1.0000 0.1379037995
H   H8        1.0  0.97180  0.48740  0.27040  1.0000 0.1379037995
H   H9        1.0  0.48740  0.97180  0.27040  1.0000 0.1379037995
H   H10       1.0  0.27040  0.97180  0.27040  1.0000 0.1379037995
H   H11       1.0  0.27040  0.97180  0.48740  1.0000 0.1379037995
H   H12       1.0  0.97180  0.27040  0.48740  1.0000 0.1379037995
H   H13       1.0  0.51260  0.72960  0.72960  1.0000 0.1379037995
H   H14       1.0  0.72960  0.51260  0.72960  1.0000 0.1379037995
H   H15       1.0  0.72960  0.72960  0.51260  1.0000 0.1379037995
H   H16       1.0  0.72960  0.51260  0.02820  1.0000 0.1379037995
H   H17       1.0  0.51260  0.72960  0.02820  1.0000 0.1379037995
H   H18       1.0  0.72960  0.72960  0.02820  1.0000 0.1379037995
H   H19       1.0  0.72960  0.02820  0.72960  1.0000 0.1379037995
H   H20       1.0  0.51260  0.02820  0.72960  1.0000 0.1379037995
H   H21       1.0  0.02820  0.51260  0.72960  1.0000 0.1379037995
H   H22       1.0  0.02820  0.72960  0.72960  1.0000 0.1379037995
H   H23       1.0  0.02820  0.72960  0.51260  1.0000 0.1379037995
H   H24       1.0  0.72960  0.02820  0.51260  1.0000 0.1379037995
C   C1        1.0  0.30010  0.42888  0.30010  1.0000 -0.0812573232
C   C2        1.0  0.42888  0.30010  0.30010  1.0000 -0.0812573232
C   C3        1.0  0.30010  0.30010  0.42888  1.0000 -0.0812573232
C   C4        1.0  0.42888  0.30010  0.97092  1.0000 -0.0812573232
C   C5        1.0  0.30010  0.42888  0.97092  1.0000 -0.0812573232
C   C6        1.0  0.30010  0.30010  0.97092  1.0000 -0.0812573232
C   C7        1.0  0.97092  0.30010  0.30010  1.0000 -0.0812573232
C   C8        1.0  0.97092  0.42888  0.30010  1.0000 -0.0812573232
C   C9        1.0  0.42888  0.97092  0.30010  1.0000 -0.0812573232
C   C10       1.0  0.30010  0.97092  0.30010  1.0000 -0.0812573232
C   C11       1.0  0.30010  0.97092  0.42888  1.0000 -0.0812573232
C   C12       1.0  0.97092  0.30010  0.42888  1.0000 -0.0812573232
C   C13       1.0  0.57112  0.69990  0.69990  1.0000 -0.0812573232
C   C14       1.0  0.69990  0.57112  0.69990  1.0000 -0.0812573232
C   C15       1.0  0.69990  0.69990  0.57112  1.0000 -0.0812573232
C   C16       1.0  0.69990  0.57112  0.02908  1.0000 -0.0812573232
C   C17       1.0  0.57112  0.69990  0.02908  1.0000 -0.0812573232
C   C18       1.0  0.69990  0.69990  0.02908  1.0000 -0.0812573232
C   C19       1.0  0.69990  0.02908  0.69990  1.0000 -0.0812573232
C   C20       1.0  0.57112  0.02908  0.69990  1.0000 -0.0812573232
C   C21       1.0  0.02908  0.57112  0.69990  1.0000 -0.0812573232
C   C22       1.0  0.02908  0.69990  0.69990  1.0000 -0.0812573232
C   C23       1.0  0.02908  0.69990  0.57112  1.0000 -0.0812573232
C   C24       1.0  0.69990  0.02908  0.57112  1.0000 -0.0812573232
C   C25       1.0  0.25700  0.38630  0.38630  1.0000 -0.0321000713
C   C26       1.0  0.38630  0.38630  0.25700  1.0000 -0.0321000713
C   C27       1.0  0.38630  0.25700  0.38630  1.0000 -0.0321000713
C   C28       1.0  0.38630  0.25700  0.97040  1.0000 -0.0321000713
C   C29       1.0  0.38630  0.38630  0.97040  1.0000 -0.0321000713
C   C30       1.0  0.25700  0.38630  0.97040  1.0000 -0.0321000713
C   C31       1.0  0.97040  0.25700  0.38630  1.0000 -0.0321000713
C   C32       1.0  0.97040  0.38630  0.25700  1.0000 -0.0321000713
C   C33       1.0  0.38630  0.97040  0.38630  1.0000 -0.0321000713
C   C34       1.0  0.38630  0.97040  0.25700  1.0000 -0.0321000713
C   C35       1.0  0.25700  0.97040  0.38630  1.0000 -0.0321000713
C   C36       1.0  0.97040  0.38630  0.38630  1.0000 -0.0321000713
C   C37       1.0  0.61370  0.74300  0.61370  1.0000 -0.0321000713
C   C38       1.0  0.61370  0.61370  0.74300  1.0000 -0.0321000713
C   C39       1.0  0.74300  0.61370  0.61370  1.0000 -0.0321000713
C   C40       1.0  0.74300  0.61370  0.02960  1.0000 -0.0321000713
C   C41       1.0  0.61370  0.61370  0.02960  1.0000 -0.0321000713
C   C42       1.0  0.61370  0.74300  0.02960  1.0000 -0.0321000713
C   C43       1.0  0.74300  0.02960  0.61370  1.0000 -0.0321000713
C   C44       1.0  0.61370  0.02960  0.74300  1.0000 -0.0321000713
C   C45       1.0  0.02960  0.61370  0.61370  1.0000 -0.0321000713
C   C46       1.0  0.02960  0.61370  0.74300  1.0000 -0.0321000713
C   C47       1.0  0.02960  0.74300  0.61370  1.0000 -0.0321000713
C   C48       1.0  0.61370  0.02960  0.61370  1.0000 -0.0321000713
C   C49       1.0  0.16238  0.43020  0.43020  1.0000 0.5805010943
C   C50       1.0  0.43020  0.43020  0.16238  1.0000 0.5805010943
C   C51       1.0  0.43020  0.16238  0.43020  1.0000 0.5805010943
C   C52       1.0  0.43020  0.16238  0.97722  1.0000 0.5805010943
C   C53       1.0  0.43020  0.43020  0.97722  1.0000 0.5805010943
C   C54       1.0  0.16238  0.43020  0.97722  1.0000 0.5805010943
C   C55       1.0  0.97722  0.16238  0.43020  1.0000 0.5805010943
C   C56       1.0  0.97722  0.43020  0.16238  1.0000 0.5805010943
C   C57       1.0  0.43020  0.97722  0.43020  1.0000 0.5805010943
C   C58       1.0  0.43020  0.97722  0.16238  1.0000 0.5805010943
C   C59       1.0  0.16238  0.97722  0.43020  1.0000 0.5805010943
C   C60       1.0  0.97722  0.43020  0.43020  1.0000 0.5805010943
C   C61       1.0  0.56980  0.83762  0.56980  1.0000 0.5805010943
C   C62       1.0  0.56980  0.56980  0.83762  1.0000 0.5805010943
C   C63       1.0  0.83762  0.56980  0.56980  1.0000 0.5805010943
C   C64       1.0  0.83762  0.56980  0.02278  1.0000 0.5805010943
C   C65       1.0  0.56980  0.56980  0.02278  1.0000 0.5805010943
C   C66       1.0  0.56980  0.83762  0.02278  1.0000 0.5805010943
C   C67       1.0  0.83762  0.02278  0.56980  1.0000 0.5805010943
C   C68       1.0  0.56980  0.02278  0.83762  1.0000 0.5805010943
C   C69       1.0  0.02278  0.56980  0.56980  1.0000 0.5805010943
C   C70       1.0  0.02278  0.56980  0.83762  1.0000 0.5805010943
C   C71       1.0  0.02278  0.83762  0.56980  1.0000 0.5805010943
C   C72       1.0  0.56980  0.02278  0.56980  1.0000 0.5805010943
O   O1        1.0  0.12580  0.50684  0.38740  1.0000 -0.5157937957
O   O2        1.0  0.50684  0.38740  0.12580  1.0000 -0.5157937957
O   O3        1.0  0.38740  0.12580  0.50684  1.0000 -0.5157937957
O   O4        1.0  0.50684  0.12580  0.97996  1.0000 -0.5157937957
O   O5        1.0  0.38740  0.50684  0.97996  1.0000 -0.5157937957
O   O6        1.0  0.12580  0.38740  0.97996  1.0000 -0.5157937957
O   O7        1.0  0.97996  0.12580  0.38740  1.0000 -0.5157937957
O   O8        1.0  0.97996  0.50684  0.12580  1.0000 -0.5157937957
O   O9        1.0  0.50684  0.97996  0.38740  1.0000 -0.5157937957
O   O10       1.0  0.38740  0.97996  0.12580  1.0000 -0.5157937957
O   O11       1.0  0.12580  0.97996  0.50684  1.0000 -0.5157937957
O   O12       1.0  0.97996  0.38740  0.50684  1.0000 -0.5157937957
O   O13       1.0  0.49316  0.87420  0.61260  1.0000 -0.5142480037
O   O14       1.0  0.61260  0.49316  0.87420  1.0000 -0.5157937957
O   O15       1.0  0.87420  0.61260  0.49316  1.0000 -0.5157937957
O   O16       1.0  0.87420  0.49316  0.02004  1.0000 -0.5157937957
O   O17       1.0  0.49316  0.61260  0.02004  1.0000 -0.5157937957
O   O18       1.0  0.61260  0.87420  0.02004  1.0000 -0.5157937957
O   O19       1.0  0.87420  0.02004  0.61260  1.0000 -0.5157937957
O   O20       1.0  0.49316  0.02004  0.87420  1.0000 -0.5157937957
O   O21       1.0  0.02004  0.49316  0.61260  1.0000 -0.5157937957
O   O22       1.0  0.02004  0.61260  0.87420  1.0000 -0.5157937957
O   O23       1.0  0.02004  0.87420  0.49316  1.0000 -0.5157937957
O   O24       1.0  0.61260  0.02004  0.49316  1.0000 -0.5157937957
O   O25       1.0  0.87420  0.49316  0.61260  1.0000 -0.5157937957
O   O26       1.0  0.49316  0.61260  0.87420  1.0000 -0.5157937957
O   O27       1.0  0.61260  0.87420  0.49316  1.0000 -0.5157937957
O   O28       1.0  0.49316  0.87420  0.02004  1.0000 -0.5157937957
O   O29       1.0  0.61260  0.49316  0.02004  1.0000 -0.5157937957
O   O30       1.0  0.87420  0.61260  0.02004  1.0000 -0.5157937957
O   O31       1.0  0.02004  0.87420  0.61260  1.0000 -0.5142480037
O   O32       1.0  0.02004  0.49316  0.87420  1.0000 -0.5157937957
O   O33       1.0  0.49316  0.02004  0.61260  1.0000 -0.5157937957
O   O34       1.0  0.61260  0.02004  0.87420  1.0000 -0.5157937957
O   O35       1.0  0.87420  0.02004  0.49316  1.0000 -0.5157937957
O   O36       1.0  0.02004  0.61260  0.49316  1.0000 -0.5157937957
O   O37       1.0  0.50684  0.12580  0.38740  1.0000 -0.5157937957
O   O38       1.0  0.38740  0.50684  0.12580  1.0000 -0.5157937957
O   O39       1.0  0.12580  0.38740  0.50684  1.0000 -0.5157937957
O   O40       1.0  0.12580  0.50684  0.97996  1.0000 -0.5157937957
O   O41       1.0  0.50684  0.38740  0.97996  1.0000 -0.5157937957
O   O42       1.0  0.38740  0.12580  0.97996  1.0000 -0.5157937957
O   O43       1.0  0.12580  0.97996  0.38740  1.0000 -0.5157937957
O   O44       1.0  0.50684  0.97996  0.12580  1.0000 -0.5157937957
O   O45       1.0  0.97996  0.50684  0.38740  1.0000 -0.5157937957
O   O46       1.0  0.97996  0.38740  0.12580  1.0000 -0.5157937957
O   O47       1.0  0.97996  0.12580  0.50684  1.0000 -0.5157937957
O   O48       1.0  0.38740  0.97996  0.50684  1.0000 -0.5157937957
