# DDEC6 charges by PACMAN v1.1 (https://github.com/mtap-research/PACMAN-charge/)
data_2012[Ho][tsx]3[ASR]1
_chemical_formula_sum              "Ho8 H56 C84 N4 O32"
_cell_length_a       12.5729
_cell_length_b       12.5729
_cell_length_c       25.944
_cell_angle_alpha    90
_cell_angle_beta     90
_cell_angle_gamma    90

_symmetry_space_group_name_H-M    "P 1"
_symmetry_Int_Tables_number       1

loop_
  _symmetry_equiv_pos_as_xyz
  'x, y, z'

loop_
  _atom_site_type_symbol
  _atom_site_label
  _atom_site_symmetry_multiplicity
  _atom_site_fract_x
  _atom_site_fract_y
  _atom_site_fract_z
  _atom_site_occupancy
  _atom_site_charge
Ho  Ho1       1.0  0.85647  0.04276  0.55162  1.0000 2.0923425018
Ho  Ho2       1.0  0.14353  0.95724  0.55162  1.0000 2.0923425018
Ho  Ho3       1.0  0.04276  0.14353  0.44838  1.0000 2.0923425018
Ho  Ho4       1.0  0.95724  0.85647  0.44838  1.0000 2.0950569371
Ho  Ho5       1.0  0.64353  0.54276  0.94838  1.0000 2.0950569371
Ho  Ho6       1.0  0.35647  0.45724  0.94838  1.0000 2.0923425018
Ho  Ho7       1.0  0.45724  0.64353  0.05162  1.0000 2.0923425018
Ho  Ho8       1.0  0.54276  0.35647  0.05162  1.0000 2.0923425018
H   H1        1.0  0.03910  0.16070  0.55640  1.0000 0.4041162105
H   H2        1.0  0.96090  0.83930  0.55640  1.0000 0.4041162105
H   H3        1.0  0.16070  0.96090  0.44360  1.0000 0.4041162105
H   H4        1.0  0.83930  0.03910  0.44360  1.0000 0.4041162105
H   H5        1.0  0.46090  0.66070  0.94360  1.0000 0.4041162105
H   H6        1.0  0.53910  0.33930  0.94360  1.0000 0.4041162105
H   H7        1.0  0.33930  0.46090  0.05640  1.0000 0.4041162105
H   H8        1.0  0.66070  0.53910  0.05640  1.0000 0.4041162105
H   H9        1.0  0.65650  0.53980  0.77830  1.0000 0.1082044389
H   H10       1.0  0.34350  0.46020  0.77830  1.0000 0.1082044389
H   H11       1.0  0.53980  0.34350  0.22170  1.0000 0.1082044389
H   H12       1.0  0.46020  0.65650  0.22170  1.0000 0.1082044389
H   H13       1.0  0.84350  0.03980  0.72170  1.0000 0.1082044389
H   H14       1.0  0.15650  0.96020  0.72170  1.0000 0.1082044389
H   H15       1.0  0.96020  0.84350  0.27830  1.0000 0.1082044389
H   H16       1.0  0.03980  0.15650  0.27830  1.0000 0.1082044389
H   H17       1.0  0.65280  0.53690  0.68950  1.0000 0.1187124026
H   H18       1.0  0.34720  0.46310  0.68950  1.0000 0.1187124026
H   H19       1.0  0.53690  0.34720  0.31050  1.0000 0.1187124026
H   H20       1.0  0.46310  0.65280  0.31050  1.0000 0.1187124026
H   H21       1.0  0.84720  0.03690  0.81050  1.0000 0.1187124026
H   H22       1.0  0.15280  0.96310  0.81050  1.0000 0.1187124026
H   H23       1.0  0.96310  0.84720  0.18950  1.0000 0.1187124026
H   H24       1.0  0.03690  0.15280  0.18950  1.0000 0.1187124026
H   H25       1.0  0.63150  0.47190  0.54980  1.0000 0.1187124026
H   H26       1.0  0.36850  0.52810  0.54980  1.0000 0.1187124026
H   H27       1.0  0.47190  0.36850  0.45020  1.0000 0.1187124026
H   H28       1.0  0.52810  0.63150  0.45020  1.0000 0.1187124026
H   H29       1.0  0.86850  0.97190  0.95020  1.0000 0.1187124026
H   H30       1.0  0.13150  0.02810  0.95020  1.0000 0.1187124026
H   H31       1.0  0.02810  0.86850  0.04980  1.0000 0.1187124026
H   H32       1.0  0.97190  0.13150  0.04980  1.0000 0.1187124026
H   H33       1.0  0.72240  0.60490  0.50420  1.0000 0.1082044389
H   H34       1.0  0.27760  0.39510  0.50420  1.0000 0.1082044389
H   H35       1.0  0.60490  0.27760  0.49580  1.0000 0.1082044389
H   H36       1.0  0.39510  0.72240  0.49580  1.0000 0.1082044389
H   H37       1.0  0.77760  0.10490  0.99580  1.0000 0.1082044389
H   H38       1.0  0.22240  0.89510  0.99580  1.0000 0.1082044389
H   H39       1.0  0.89510  0.77760  0.00420  1.0000 0.1082044389
H   H40       1.0  0.10490  0.22240  0.00420  1.0000 0.1082044389
H   H41       1.0  0.60900  0.82730  0.59670  1.0000 0.1082044389
H   H42       1.0  0.39100  0.17270  0.59670  1.0000 0.1082044389
H   H43       1.0  0.82730  0.39100  0.40330  1.0000 0.1082044389
H   H44       1.0  0.17270  0.60900  0.40330  1.0000 0.1082044389
H   H45       1.0  0.89100  0.32730  0.90330  1.0000 0.1082044389
H   H46       1.0  0.10900  0.67270  0.90330  1.0000 0.1082044389
H   H47       1.0  0.67270  0.89100  0.09670  1.0000 0.1082044389
H   H48       1.0  0.32730  0.10900  0.09670  1.0000 0.1082044389
H   H49       1.0  0.49300  0.70650  0.63460  1.0000 0.1187124026
H   H50       1.0  0.50700  0.29350  0.63460  1.0000 0.1187124026
H   H51       1.0  0.70650  0.50700  0.36540  1.0000 0.1187124026
H   H52       1.0  0.29350  0.49300  0.36540  1.0000 0.1187124026
H   H53       1.0  0.00700  0.20650  0.86540  1.0000 0.1187124026
H   H54       1.0  0.99300  0.79350  0.86540  1.0000 0.1187124026
H   H55       1.0  0.79350  0.00700  0.13460  1.0000 0.1187124026
H   H56       1.0  0.20650  0.99300  0.13460  1.0000 0.1187124026
C   C1        1.0  0.50000  0.50000  0.84430  1.0000 0.6152655343
C   C2        1.0  0.50000  0.50000  0.15570  1.0000 0.6142546527
C   C3        1.0  0.00000  0.00000  0.65570  1.0000 0.6142546527
C   C4        1.0  0.00000  0.00000  0.34430  1.0000 0.6142546527
C   C5        1.0  0.50000  0.50000  0.78671  1.0000 -0.0666678203
C   C6        1.0  0.50000  0.50000  0.21329  1.0000 -0.0666678203
C   C7        1.0  0.00000  0.00000  0.71329  1.0000 -0.0666678203
C   C8        1.0  0.00000  0.00000  0.28671  1.0000 -0.0666678203
C   C9        1.0  0.59420  0.52370  0.76068  1.0000 -0.1059325719
C   C10       1.0  0.40580  0.47630  0.76068  1.0000 -0.1059325719
C   C11       1.0  0.52370  0.40580  0.23932  1.0000 -0.1059325719
C   C12       1.0  0.47630  0.59420  0.23932  1.0000 -0.1059325719
C   C13       1.0  0.90580  0.02370  0.73932  1.0000 -0.1059325719
C   C14       1.0  0.09420  0.97630  0.73932  1.0000 -0.1059325719
C   C15       1.0  0.97630  0.90580  0.26068  1.0000 -0.1059325719
C   C16       1.0  0.02370  0.09420  0.26068  1.0000 -0.1059325719
C   C17       1.0  0.59060  0.52220  0.70748  1.0000 -0.2030797647
C   C18       1.0  0.40940  0.47780  0.70748  1.0000 -0.2030797647
C   C19       1.0  0.52220  0.40940  0.29252  1.0000 -0.2030797647
C   C20       1.0  0.47780  0.59060  0.29252  1.0000 -0.2030797647
C   C21       1.0  0.90940  0.02220  0.79252  1.0000 -0.2030797647
C   C22       1.0  0.09060  0.97780  0.79252  1.0000 -0.2030797647
C   C23       1.0  0.97780  0.90940  0.20748  1.0000 -0.2030797647
C   C24       1.0  0.02220  0.09060  0.20748  1.0000 -0.2030797647
C   C25       1.0  0.50000  0.50000  0.67960  1.0000 0.1438370431
C   C26       1.0  0.50000  0.50000  0.32040  1.0000 0.1438370431
C   C27       1.0  0.00000  0.00000  0.82040  1.0000 0.1438370431
C   C28       1.0  0.00000  0.00000  0.17960  1.0000 0.1438370431
C   C29       1.0  0.55630  0.57750  0.59745  1.0000 0.176291735
C   C30       1.0  0.44370  0.42250  0.59745  1.0000 0.176291735
C   C31       1.0  0.57750  0.44370  0.40255  1.0000 0.176291735
C   C32       1.0  0.42250  0.55630  0.40255  1.0000 0.176291735
C   C33       1.0  0.94370  0.07750  0.90255  1.0000 0.176291735
C   C34       1.0  0.05630  0.92250  0.90255  1.0000 0.176291735
C   C35       1.0  0.92250  0.94370  0.09745  1.0000 0.176291735
C   C36       1.0  0.07750  0.05630  0.09745  1.0000 0.176291735
C   C37       1.0  0.62400  0.54340  0.55828  1.0000 -0.212989538
C   C38       1.0  0.37600  0.45660  0.55828  1.0000 -0.212989538
C   C39       1.0  0.54340  0.37600  0.44172  1.0000 -0.212989538
C   C40       1.0  0.45660  0.62400  0.44172  1.0000 -0.212989538
C   C41       1.0  0.87600  0.04340  0.94172  1.0000 -0.212989538
C   C42       1.0  0.12400  0.95660  0.94172  1.0000 -0.212989538
C   C43       1.0  0.95660  0.87600  0.05828  1.0000 -0.212989538
C   C44       1.0  0.04340  0.12400  0.05828  1.0000 -0.212989538
C   C45       1.0  0.68070  0.62460  0.53222  1.0000 -0.0913930675
C   C46       1.0  0.31930  0.37540  0.53222  1.0000 -0.0913930675
C   C47       1.0  0.62460  0.31930  0.46778  1.0000 -0.0913930675
C   C48       1.0  0.37540  0.68070  0.46778  1.0000 -0.0913930675
C   C49       1.0  0.81930  0.12460  0.96778  1.0000 -0.0913930675
C   C50       1.0  0.18070  0.87540  0.96778  1.0000 -0.0913930675
C   C51       1.0  0.87540  0.81930  0.03222  1.0000 -0.0913930675
C   C52       1.0  0.12460  0.18070  0.03222  1.0000 -0.0913930675
C   C53       1.0  0.67850  0.73050  0.54556  1.0000 -0.1005838104
C   C54       1.0  0.32150  0.26950  0.54556  1.0000 -0.1005838104
C   C55       1.0  0.73050  0.32150  0.45444  1.0000 -0.1005838104
C   C56       1.0  0.26950  0.67850  0.45444  1.0000 -0.1005838104
C   C57       1.0  0.82150  0.23050  0.95444  1.0000 -0.1005838104
C   C58       1.0  0.17850  0.76950  0.95444  1.0000 -0.1005838104
C   C59       1.0  0.76950  0.82150  0.04556  1.0000 -0.1005838104
C   C60       1.0  0.23050  0.17850  0.04556  1.0000 -0.1005838104
C   C61       1.0  0.61020  0.75690  0.58570  1.0000 -0.0807510102
C   C62       1.0  0.38980  0.24310  0.58570  1.0000 -0.0807510102
C   C63       1.0  0.75690  0.38980  0.41430  1.0000 -0.0807510102
C   C64       1.0  0.24310  0.61020  0.41430  1.0000 -0.0807510102
C   C65       1.0  0.88980  0.25690  0.91430  1.0000 -0.0807510102
C   C66       1.0  0.11020  0.74310  0.91430  1.0000 -0.0807510102
C   C67       1.0  0.74310  0.88980  0.08570  1.0000 -0.0807510102
C   C68       1.0  0.25690  0.11020  0.08570  1.0000 -0.0807510102
C   C69       1.0  0.54340  0.68460  0.61060  1.0000 -0.2198744127
C   C70       1.0  0.45660  0.31540  0.61060  1.0000 -0.2198744127
C   C71       1.0  0.68460  0.45660  0.38940  1.0000 -0.2198744127
C   C72       1.0  0.31540  0.54340  0.38940  1.0000 -0.2198744127
C   C73       1.0  0.95660  0.18460  0.88940  1.0000 -0.2198744127
C   C74       1.0  0.04340  0.81540  0.88940  1.0000 -0.2198744127
C   C75       1.0  0.81540  0.95660  0.11060  1.0000 -0.2198744127
C   C76       1.0  0.18460  0.04340  0.11060  1.0000 -0.2198744127
C   C77       1.0  0.74960  0.80900  0.52260  1.0000 0.6142546527
C   C78       1.0  0.25040  0.19100  0.52260  1.0000 0.6142546527
C   C79       1.0  0.80900  0.25040  0.47740  1.0000 0.6142546527
C   C80       1.0  0.19100  0.74960  0.47740  1.0000 0.6152655343
C   C81       1.0  0.75040  0.30900  0.97740  1.0000 0.6142546527
C   C82       1.0  0.24960  0.69100  0.97740  1.0000 0.6152655343
C   C83       1.0  0.69100  0.75040  0.02260  1.0000 0.6142546527
C   C84       1.0  0.30900  0.24960  0.02260  1.0000 0.6142546527
N   N1        1.0  0.50000  0.50000  0.62460  1.0000 -0.1604018798
N   N2        1.0  0.50000  0.50000  0.37540  1.0000 -0.1604018798
N   N3        1.0  0.00000  0.00000  0.87540  1.0000 -0.1604018798
N   N4        1.0  0.00000  0.00000  0.12460  1.0000 -0.1604018798
O   O1        1.0  0.02450  0.10740  0.53748  1.0000 -1.1988674144
O   O2        1.0  0.97550  0.89260  0.53748  1.0000 -1.1988674144
O   O3        1.0  0.10740  0.97550  0.46252  1.0000 -1.1988674144
O   O4        1.0  0.89260  0.02450  0.46252  1.0000 -1.1988674144
O   O5        1.0  0.47550  0.60740  0.96252  1.0000 -1.1988674144
O   O6        1.0  0.52450  0.39260  0.96252  1.0000 -1.1988674144
O   O7        1.0  0.39260  0.47550  0.03748  1.0000 -1.1947553894
O   O8        1.0  0.60740  0.52450  0.03748  1.0000 -1.1947553894
O   O9        1.0  0.81110  0.77680  0.48874  1.0000 -0.6571868351
O   O10       1.0  0.18890  0.22320  0.48874  1.0000 -0.6571868351
O   O11       1.0  0.77680  0.18890  0.51126  1.0000 -0.6571868351
O   O12       1.0  0.22320  0.81110  0.51126  1.0000 -0.6571868351
O   O13       1.0  0.68890  0.27680  0.01126  1.0000 -0.6571868351
O   O14       1.0  0.31110  0.72320  0.01126  1.0000 -0.6571868351
O   O15       1.0  0.72320  0.68890  0.98874  1.0000 -0.6571868351
O   O16       1.0  0.27680  0.31110  0.98874  1.0000 -0.6571868351
O   O17       1.0  0.74200  0.90350  0.53651  1.0000 -0.6823469466
O   O18       1.0  0.25800  0.09650  0.53651  1.0000 -0.6823469466
O   O19       1.0  0.90350  0.25800  0.46349  1.0000 -0.6823469466
O   O20       1.0  0.09650  0.74200  0.46349  1.0000 -0.6823469466
O   O21       1.0  0.75800  0.40350  0.96349  1.0000 -0.6823469466
O   O22       1.0  0.24200  0.59650  0.96349  1.0000 -0.6823469466
O   O23       1.0  0.59650  0.75800  0.03651  1.0000 -0.6823469466
O   O24       1.0  0.40350  0.24200  0.03651  1.0000 -0.6823469466
O   O25       1.0  0.41410  0.50540  0.86728  1.0000 -0.6823469466
O   O26       1.0  0.58590  0.49460  0.86728  1.0000 -0.6823469466
O   O27       1.0  0.50540  0.58590  0.13272  1.0000 -0.6823469466
O   O28       1.0  0.49460  0.41410  0.13272  1.0000 -0.6823469466
O   O29       1.0  0.08590  0.00540  0.63272  1.0000 -0.6823469466
O   O30       1.0  0.91410  0.99460  0.63272  1.0000 -0.6823469466
O   O31       1.0  0.99460  0.08590  0.36728  1.0000 -0.6823469466
O   O32       1.0  0.00540  0.91410  0.36728  1.0000 -0.6823469466
